011
  CCTOOLS-1004241119

 25 24  0  0  0  0  0  0  0  0999 V2000
   -1.6050    0.3910   -0.0050 C   0  0  0  0  0
   -0.4170   -0.5740   -0.0130 C   0  0  0  0  0
    3.3300    1.2550    0.0180 O   0  0  0  0  0
   -2.9100   -0.4080   -0.0180 C   0  0  0  0  0
    0.8880    0.2250   -0.0010 C   0  0  0  0  0
   -4.0980    0.5560   -0.0100 C   0  0  0  0  0
    2.0760   -0.7390   -0.0080 C   0  0  0  0  0
   -5.3510   -0.2110   -0.0220 N   0  0  0  0  0
    3.3610    0.0480    0.0040 C   0  0  0  0  0
   -1.5660    1.0080    0.8920 H   0  0  0  0  0
   -1.5610    1.0290   -0.8880 H   0  0  0  0  0
   -0.4610   -1.2120    0.8690 H   0  0  0  0  0
   -0.4560   -1.1910   -0.9100 H   0  0  0  0  0
   -2.9490   -1.0260   -0.9150 H   0  0  0  0  0
   -2.9540   -1.0460    0.8650 H   0  0  0  0  0
    0.9320    0.8630   -0.8830 H   0  0  0  0  0
    0.9270    0.8430    0.8970 H   0  0  0  0  0
   -4.0590    1.1740    0.8870 H   0  0  0  0  0
   -4.0540    1.1940   -0.8920 H   0  0  0  0  0
    2.0320   -1.3770    0.8740 H   0  0  0  0  0
    2.0370   -1.3570   -0.9060 H   0  0  0  0  0
   -5.3870   -0.8570    0.7520 H   0  0  0  0  0
   -6.1510    0.4040   -0.0170 H   0  0  0  0  0
    4.5410   -0.5940   -0.0000 O   0  0  0  0  0
    5.3380   -0.0460    0.0080 H   0  0  0  0  0
  1  4  1  0  0  0
  1 10  1  0  0  0
  1 11  1  0  0  0
  2  1  1  0  0  0
  2 12  1  0  0  0
  2 13  1  0  0  0
  4  6  1  0  0  0
  4 14  1  0  0  0
  4 15  1  0  0  0
  5  2  1  0  0  0
  5 16  1  0  0  0
  5 17  1  0  0  0
  6  8  1  0  0  0
  6 18  1  0  0  0
  6 19  1  0  0  0
  7  5  1  0  0  0
  7  9  1  0  0  0
  7 20  1  0  0  0
  7 21  1  0  0  0
  8 22  1  0  0  0
  8 23  1  0  0  0
  9  3  2  0  0  0
  9 24  1  0  0  0
 24 25  1  0  0  0
M  END
$$$$
