031
  CCTOOLS-0919241027

 81 85  0  0  1  0  0  0  0  0999 V2000
   -6.8430    1.7300   -3.3160 O   0  0  0  0  0
   -8.2240    1.6200   -2.9650 C   0  0  0  0  0
   -5.9430    1.7080   -2.2980 C   0  0  0  0  0
   -6.3800    1.5770   -0.9880 C   0  0  0  0  0
   -5.4640    1.5550    0.0460 C   0  0  0  0  0
   -4.1120    1.6630   -0.2250 C   0  0  0  0  0
   -3.6740    1.7940   -1.5300 C   0  0  0  0  0
   -4.5860    1.8110   -2.5670 C   0  0  0  0  0
   -2.9450    1.6350    1.0950 S   0  0  0  0  0
   -1.8360    2.4120    0.6670 O   0  0  0  0  0
   -3.6760    1.9120    2.2820 O   0  0  0  0  0
   -2.4000    0.0780    1.2350 N   0  0  0  0  0
   -3.0060   -0.8260    2.2160 C   0  0  0  0  0
   -3.7280   -1.9610    1.4870 C   0  0  0  0  0
   -4.4240   -2.8920    2.5030 C   0  0  0  0  0
   -4.8030   -1.4220    0.6460 N   0  0  0  0  0
   -6.0050   -1.5880    1.2260 C   0  0  0  0  0
   -7.0610   -1.2280    0.7500 O   0  0  0  0  0
   -5.8470   -2.2910    2.5590 C   0  0  0  0  0
   -1.3120   -0.3970    0.3770 C   0  0  0  0  0
    0.0200   -0.2510    1.1150 C   0  0  0  0  0
    0.0310   -1.1160    2.2530 O   0  0  0  0  0
    1.1680   -0.6290    0.1760 C   0  0  0  0  0
    2.4470   -0.3760    0.8430 N   0  0  0  0  0
    3.5550   -0.1420    0.1110 C   0  0  0  0  0
    3.4910   -0.1410   -1.1030 O   0  0  0  0  0
    4.7310    0.0900    0.7230 O   0  0  0  0  0
    7.1790   -0.1500    0.5620 C   0  0  0  0  0
    5.8810    0.3340   -0.1280 C   0  0  0  0  0
    6.0970    1.8480   -0.3220 C   0  0  0  0  0
    7.6180    2.0810   -0.3370 C   0  0  0  0  0
    7.9820    2.8360    0.8380 O   0  0  0  0  0
    9.3480    2.4740    1.1280 C   0  0  0  0  0
    9.4160    0.9520    0.8710 C   0  0  0  0  0
    8.2760    0.6890   -0.1350 C   0  0  0  0  0
    1.0650   -2.1120   -0.1840 C   0  0  0  0  0
    1.8360   -2.3570   -2.5530 C   0  0  0  0  0
    2.8040   -2.6730   -3.4880 C   0  0  0  0  0
    4.0540   -3.0930   -3.0740 C   0  0  0  0  0
    4.3360   -3.1970   -1.7240 C   0  0  0  0  0
    3.3690   -2.8810   -0.7890 C   0  0  0  0  0
    2.1200   -2.4560   -1.2040 C   0  0  0  0  0
   -8.3920    0.6760   -2.4450 H   0  0  0  0  0
   -8.5000    2.4480   -2.3120 H   0  0  0  0  0
   -8.8320    1.6500   -3.8680 H   0  0  0  0  0
   -7.4360    1.4940   -0.7760 H   0  0  0  0  0
   -5.8030    1.4530    1.0660 H   0  0  0  0  0
   -2.6180    1.8790   -1.7390 H   0  0  0  0  0
   -4.2440    1.9090   -3.5870 H   0  0  0  0  0
   -2.2280   -1.2420    2.8560 H   0  0  0  0  0
   -3.7220   -0.2730    2.8250 H   0  0  0  0  0
   -3.0220   -2.5270    0.8790 H   0  0  0  0  0
   -4.4480   -3.9190    2.1390 H   0  0  0  0  0
   -3.9380   -2.8380    3.4780 H   0  0  0  0  0
   -4.6650   -1.0010   -0.2160 H   0  0  0  0  0
   -6.5910   -3.0800    2.6650 H   0  0  0  0  0
   -5.9270   -1.5770    3.3790 H   0  0  0  0  0
   -1.4760   -1.4450    0.1270 H   0  0  0  0  0
   -1.2860    0.1950   -0.5390 H   0  0  0  0  0
    0.1430    0.7810    1.4420 H   0  0  0  0  0
   -0.0740   -2.0530    2.0360 H   0  0  0  0  0
    1.1070   -0.0290   -0.7320 H   0  0  0  0  0
    2.4980   -0.3770    1.8120 H   0  0  0  0  0
    7.1510    0.0640    1.6310 H   0  0  0  0  0
    7.3390   -1.2140    0.3880 H   0  0  0  0  0
    5.7530   -0.1620   -1.0910 H   0  0  0  0  0
    5.6620    2.1690   -1.2680 H   0  0  0  0  0
    5.6440    2.3980    0.5030 H   0  0  0  0  0
    7.9460    2.5570   -1.2600 H   0  0  0  0  0
   10.0310    3.0020    0.4620 H   0  0  0  0  0
    9.5870    2.6950    2.1680 H   0  0  0  0  0
   10.3780    0.6810    0.4360 H   0  0  0  0  0
    9.2470    0.4010    1.7960 H   0  0  0  0  0
    8.6190    0.2420   -1.0680 H   0  0  0  0  0
    1.2150   -2.7150    0.7110 H   0  0  0  0  0
    0.0780   -2.3180   -0.6000 H   0  0  0  0  0
    0.8590   -2.0300   -2.8760 H   0  0  0  0  0
    2.5840   -2.5910   -4.5420 H   0  0  0  0  0
    4.8110   -3.3390   -3.8040 H   0  0  0  0  0
    5.3130   -3.5260   -1.4010 H   0  0  0  0  0
    3.5890   -2.9630    0.2650 H   0  0  0  0  0
  2  1  1  0  0  0
  2 43  1  0  0  0
  2 44  1  0  0  0
  2 45  1  0  0  0
  3  1  1  0  0  0
  3  8  1  0  0  0
  4  3  2  0  0  0
  4 46  1  0  0  0
  5  4  1  0  0  0
  5  6  2  0  0  0
  5 47  1  0  0  0
  6  7  1  0  0  0
  7  8  2  0  0  0
  7 48  1  0  0  0
  8 49  1  0  0  0
  9  6  1  0  0  0
  9 10  2  0  0  0
 11  9  2  0  0  0
 12  9  1  0  0  0
 12 20  1  0  0  0
 13 12  1  0  0  0
 13 50  1  0  0  0
 13 51  1  0  0  0
 14 13  1  0  0  0
 14 52  1  0  0  0
 15 14  1  0  0  0
 15 53  1  0  0  0
 15 54  1  0  0  0
 16 14  1  0  0  0
 16 55  1  0  0  0
 17 16  1  0  0  0
 17 19  1  0  0  0
 18 17  2  0  0  0
 19 15  1  0  0  0
 19 56  1  0  0  0
 19 57  1  0  0  0
 20 58  1  0  0  0
 20 59  1  0  0  0
 21 20  1  0  0  0
 21 23  1  0  0  0
 21 22  1  0  0  0
 21 60  1  0  0  0
 22 61  1  0  0  0
 23 36  1  0  0  0
 23 62  1  0  0  0
 24 23  1  0  0  0
 24 63  1  0  0  0
 25 24  1  0  0  0
 26 25  2  0  0  0
 27 25  1  0  0  0
 28 35  1  0  0  0
 28 64  1  0  0  0
 28 65  1  0  0  0
 29 27  1  0  0  0
 29 28  1  0  0  0
 29 66  1  0  0  0
 30 29  1  0  0  0
 30 31  1  0  0  0
 30 67  1  0  0  0
 30 68  1  0  0  0
 31 35  1  0  0  0
 31 32  1  0  0  0
 31 69  1  0  0  0
 32 33  1  0  0  0
 33 70  1  0  0  0
 33 71  1  0  0  0
 34 33  1  0  0  0
 34 72  1  0  0  0
 34 73  1  0  0  0
 35 34  1  0  0  0
 35 74  1  0  0  0
 36 42  1  0  0  0
 36 75  1  0  0  0
 36 76  1  0  0  0
 37 38  1  0  0  0
 37 77  1  0  0  0
 38 78  1  0  0  0
 39 38  2  0  0  0
 39 79  1  0  0  0
 40 39  1  0  0  0
 40 80  1  0  0  0
 41 40  2  0  0  0
 41 42  1  0  0  0
 41 81  1  0  0  0
 42 37  2  0  0  0
M  END
$$$$
