041
  CCTOOLS-0919241027

 30 32  0  0  0  0  0  0  0  0999 V2000
    0.2810   -0.0040    4.1880 C   0  0  0  0  0
    0.9980   -0.0020    2.9930 C   0  0  0  0  0
    0.3120   -0.0050    1.7750 C   0  0  0  0  0
   -1.0900   -0.0100    1.7640 C   0  0  0  0  0
   -1.7930   -0.0170    2.9720 C   0  0  0  0  0
   -1.1060   -0.0090    4.1720 C   0  0  0  0  0
    0.7040   -0.0040    0.4810 O   0  0  0  0  0
   -0.3980   -0.0080   -0.2900 C   0  0  0  0  0
   -1.4700   -0.0110    0.4600 N   0  0  0  0  0
   -0.3980   -0.0080   -1.7670 C   0  0  0  0  0
   -1.6060   -0.0120   -2.4670 C   0  0  0  0  0
   -1.6030   -0.0130   -3.8450 C   0  0  0  0  0
   -0.4000   -0.0090   -4.5390 C   0  0  0  0  0
    0.8060   -0.0040   -3.8470 C   0  0  0  0  0
    0.8100    0.0010   -2.4670 C   0  0  0  0  0
   -1.7950   -0.0110    5.3440 O   0  0  0  0  0
    1.9740   -0.0000   -4.5260 F   0  0  0  0  0
   -0.4010   -0.0100   -5.8980 O   0  0  0  0  0
    2.4750    0.0020    3.0130 C   0  0  0  0  0
    3.1220    0.0040    4.1710 C   0  0  0  0  0
    0.8080   -0.0020    5.1310 H   0  0  0  0  0
   -2.8730   -0.0270    2.9680 H   0  0  0  0  0
   -2.5420   -0.0160   -1.9290 H   0  0  0  0  0
   -2.5370   -0.0160   -4.3870 H   0  0  0  0  0
    1.7470    0.0050   -1.9290 H   0  0  0  0  0
   -1.9390    0.9140    5.5850 H   0  0  0  0  0
   -0.4050    0.9150   -6.1780 H   0  0  0  0  0
    3.0270    0.0030    2.0860 H   0  0  0  0  0
    4.2020    0.0070    4.1860 H   0  0  0  0  0
    2.5690    0.0020    5.0990 H   0  0  0  0  0
  1  2  2  0  0  0
  1  6  1  0  0  0
  1 21  1  0  0  0
  2  3  1  0  0  0
  2 19  1  0  0  0
  3  4  2  0  0  0
  3  7  1  0  0  0
  4  5  1  0  0  0
  4  9  1  0  0  0
  5  6  2  0  0  0
  5 22  1  0  0  0
  6 16  1  0  0  0
  7  8  1  0  0  0
  8  9  2  0  0  0
  8 10  1  0  0  0
 10 11  2  0  0  0
 10 15  1  0  0  0
 11 12  1  0  0  0
 11 23  1  0  0  0
 12 13  2  0  0  0
 12 24  1  0  0  0
 13 14  1  0  0  0
 13 18  1  0  0  0
 14 15  2  0  0  0
 14 17  1  0  0  0
 15 25  1  0  0  0
 16 26  1  0  0  0
 18 27  1  0  0  0
 19 20  2  0  0  0
 19 28  1  0  0  0
 20 29  1  0  0  0
 20 30  1  0  0  0
M  END
$$$$
