04G
  CCTOOLS-0919241027

 23 25  0  0  0  0  0  0  0  0999 V2000
    4.7290   -1.0850   -0.0210 O   0  0  0  0  0
   -0.0110   -1.2130   -0.0090 O   0  0  0  0  0
   -0.0480    1.5740    0.0020 N   0  0  0  0  0
   -4.6410   -1.1380    0.0040 O   0  0  0  0  0
    2.3280    1.6300   -0.0040 C   0  0  0  0  0
    3.5110    0.9620   -0.0090 C   0  0  0  0  0
    3.5390   -0.4360   -0.0150 C   0  0  0  0  0
    2.3590   -1.1630   -0.0150 C   0  0  0  0  0
    1.1400   -0.5030   -0.0090 C   0  0  0  0  0
    1.1120    0.9120   -0.0030 C   0  0  0  0  0
   -1.1920    0.9140    0.0030 C   0  0  0  0  0
   -1.1890   -0.5560   -0.0040 C   0  0  0  0  0
   -2.3770   -1.2250   -0.0030 C   0  0  0  0  0
   -3.5870   -0.5180    0.0030 C   0  0  0  0  0
   -3.6180    0.8970    0.0090 C   0  0  0  0  0
   -2.4740    1.6180    0.0100 C   0  0  0  0  0
    5.0770   -1.2770    0.8610 H   0  0  0  0  0
    2.3170    2.7100    0.0010 H   0  0  0  0  0
    4.4380    1.5160   -0.0100 H   0  0  0  0  0
    2.3900   -2.2430   -0.0190 H   0  0  0  0  0
   -2.3850   -2.3050   -0.0080 H   0  0  0  0  0
   -4.5690    1.4080    0.0130 H   0  0  0  0  0
   -2.5070    2.6970    0.0140 H   0  0  0  0  0
  1  7  1  0  0  0
  1 17  1  0  0  0
  2 12  1  0  0  0
  3 11  2  0  0  0
  5 10  1  0  0  0
  5 18  1  0  0  0
  6  5  2  0  0  0
  6  7  1  0  0  0
  6 19  1  0  0  0
  7  8  2  0  0  0
  8  9  1  0  0  0
  8 20  1  0  0  0
  9  2  1  0  0  0
 10  3  1  0  0  0
 10  9  2  0  0  0
 11 16  1  0  0  0
 11 12  1  0  0  0
 12 13  2  0  0  0
 13 14  1  0  0  0
 13 21  1  0  0  0
 14  4  2  0  0  0
 15 14  1  0  0  0
 15 22  1  0  0  0
 16 15  2  0  0  0
 16 23  1  0  0  0
M  END
$$$$
