083
  CCTOOLS-0919241028

 45 48  0  0  0  0  0  0  0  0999 V2000
   -1.0530    0.4190    1.6350 N   0  0  0  0  0
   -1.5940    0.2370    0.3860 C   0  0  0  0  0
   -3.0320    0.5080    0.1550 C   0  0  0  0  0
   -3.7820    0.9270    1.1650 N   0  0  0  0  0
   -5.0670    1.1780    0.9930 C   0  0  0  0  0
   -5.9130    1.6530    2.1470 C   0  0  0  0  0
   -5.6300    0.9990   -0.2630 C   0  0  0  0  0
   -3.5360    0.3330   -1.0590 N   0  0  0  0  0
   -4.8160    0.5610   -1.2980 C   0  0  0  0  0
   -5.3820    0.3520   -2.6790 C   0  0  0  0  0
   -0.8360   -0.1780   -0.6030 N   0  0  0  0  0
    0.4560   -0.5310   -0.3690 C   0  0  0  0  0
    0.8100   -1.9300   -0.1340 C   0  0  0  0  0
   -0.1470   -2.9490   -0.1410 C   0  0  0  0  0
    0.2420   -4.2380    0.0840 C   0  0  0  0  0
    1.5770   -4.5540    0.3190 C   0  0  0  0  0
    2.5360   -3.5850    0.3330 C   0  0  0  0  0
    2.1700   -2.2500    0.1050 C   0  0  0  0  0
    3.1120   -1.2050    0.1050 C   0  0  0  0  0
    2.6860    0.0890   -0.1250 C   0  0  0  0  0
    1.4090    0.3890   -0.3550 N   0  0  0  0  0
    3.6880    1.1820   -0.1220 C   0  0  0  0  0
    4.9660    0.9030    0.1010 N   0  0  0  0  0
    5.8870    1.8450    0.1120 C   0  0  0  0  0
    5.5520    3.1680   -0.1110 C   0  0  0  0  0
    4.2270    3.5040   -0.3480 C   0  0  0  0  0
    3.2810    2.4940   -0.3590 C   0  0  0  0  0
   -1.5920    0.7970    2.3470 H   0  0  0  0  0
   -0.1320    0.1660    1.8060 H   0  0  0  0  0
   -5.8940    2.7430    2.1860 H   0  0  0  0  0
   -6.9390    1.3120    2.0100 H   0  0  0  0  0
   -5.5160    1.2490    3.0780 H   0  0  0  0  0
   -6.6780    1.1970   -0.4320 H   0  0  0  0  0
   -5.2970    1.2770   -3.2500 H   0  0  0  0  0
   -4.8280   -0.4390   -3.1830 H   0  0  0  0  0
   -6.4320    0.0690   -2.6020 H   0  0  0  0  0
   -1.1860   -2.7180   -0.3220 H   0  0  0  0  0
   -0.4980   -5.0250    0.0790 H   0  0  0  0  0
    1.8580   -5.5820    0.4940 H   0  0  0  0  0
    3.5690   -3.8430    0.5160 H   0  0  0  0  0
    4.1560   -1.4120    0.2850 H   0  0  0  0  0
    2.2410    2.7190   -0.5440 H   0  0  0  0  0
    6.9180    1.5800    0.2970 H   0  0  0  0  0
    6.3150    3.9330   -0.0990 H   0  0  0  0  0
    3.9410    4.5310   -0.5230 H   0  0  0  0  0
  1  2  1  0  0  0
  1 28  1  0  0  0
  1 29  1  0  0  0
  2  3  1  0  0  0
  2 11  2  0  0  0
  3  4  1  0  0  0
  3  8  2  0  0  0
  4  5  2  0  0  0
  5  6  1  0  0  0
  5  7  1  0  0  0
  6 30  1  0  0  0
  6 31  1  0  0  0
  6 32  1  0  0  0
  7  9  2  0  0  0
  7 33  1  0  0  0
  8  9  1  0  0  0
  9 10  1  0  0  0
 10 34  1  0  0  0
 10 35  1  0  0  0
 10 36  1  0  0  0
 11 12  1  0  0  0
 12 13  1  0  0  0
 12 21  2  0  0  0
 13 14  1  0  0  0
 13 18  2  0  0  0
 14 15  2  0  0  0
 14 37  1  0  0  0
 15 16  1  0  0  0
 15 38  1  0  0  0
 16 17  2  0  0  0
 16 39  1  0  0  0
 17 18  1  0  0  0
 17 40  1  0  0  0
 18 19  1  0  0  0
 19 20  2  0  0  0
 19 41  1  0  0  0
 20 21  1  0  0  0
 20 22  1  0  0  0
 22 23  2  0  0  0
 22 27  1  0  0  0
 23 24  1  0  0  0
 24 25  2  0  0  0
 24 43  1  0  0  0
 25 26  1  0  0  0
 25 44  1  0  0  0
 26 27  2  0  0  0
 26 45  1  0  0  0
 27 42  1  0  0  0
M  END
$$$$
