0AF
  CCTOOLS-1004241120

 28 29  0  0  1  0  0  0  0  0999 V2000
   -1.7400    1.1710   -0.9610 N   0  0  0  0  0
   -2.3000   -0.0910   -0.4570 C   0  0  0  0  0
   -3.7600    0.1010   -0.1340 C   0  0  0  0  0
   -4.1980    1.2120    0.0470 O   0  0  0  0  0
   -1.5490   -0.5130    0.8070 C   0  0  0  0  0
   -0.1160   -0.8240    0.4600 C   0  0  0  0  0
    0.3940   -2.0340    0.1810 C   0  0  0  0  0
    0.9830    0.1390    0.3560 C   0  0  0  0  0
    1.7310   -1.9250   -0.0870 N   0  0  0  0  0
    2.1220   -0.6080    0.0120 C   0  0  0  0  0
    1.0810    1.5230    0.5240 C   0  0  0  0  0
    3.3430    0.0470   -0.1600 C   0  0  0  0  0
    4.4560   -0.6580   -0.4940 O   0  0  0  0  0
    2.2840    2.1460    0.3530 C   0  0  0  0  0
    3.4140    1.4170    0.0110 C   0  0  0  0  0
   -4.5730   -0.9640   -0.0470 O   0  0  0  0  0
   -2.1760    1.4380   -1.8310 H   0  0  0  0  0
   -1.8260    1.9040   -0.2730 H   0  0  0  0  0
   -2.1950   -0.8640   -1.2180 H   0  0  0  0  0
   -1.5790    0.2970    1.5360 H   0  0  0  0  0
   -2.0210   -1.4000    1.2300 H   0  0  0  0  0
   -5.5010   -0.7910    0.1620 H   0  0  0  0  0
   -0.1680   -2.9560    0.1710 H   0  0  0  0  0
    2.3160   -2.6650   -0.3150 H   0  0  0  0  0
    0.2060    2.0990    0.7890 H   0  0  0  0  0
    2.3560    3.2160    0.4830 H   0  0  0  0  0
    4.5950   -0.7460   -1.4470 H   0  0  0  0  0
    4.3590    1.9240   -0.1220 H   0  0  0  0  0
  1  2  1  0  0  0
  1 17  1  0  0  0
  1 18  1  0  0  0
  2  3  1  0  0  0
  2  5  1  0  0  0
  2 19  1  0  0  0
  3  4  2  0  0  0
  3 16  1  0  0  0
  5  6  1  0  0  0
  5 20  1  0  0  0
  5 21  1  0  0  0
  6  7  2  0  0  0
  6  8  1  0  0  0
  7  9  1  0  0  0
  7 23  1  0  0  0
  8 10  2  0  0  0
  8 11  1  0  0  0
  9 10  1  0  0  0
  9 24  1  0  0  0
 10 12  1  0  0  0
 11 14  2  0  0  0
 11 25  1  0  0  0
 12 13  1  0  0  0
 12 15  2  0  0  0
 13 27  1  0  0  0
 14 15  1  0  0  0
 14 26  1  0  0  0
 15 28  1  0  0  0
 16 22  1  0  0  0
M  END
$$$$
