0DS
  CCTOOLS-0919241029

 68 68  0  0  1  0  0  0  0  0999 V2000
   -4.5470   -0.2890    0.9200 C   0  0  0  0  0
   -5.8870   -0.0350    0.2790 C   0  0  0  0  0
   -5.9480    0.3470   -0.8710 O   0  0  0  0  0
   -7.0190   -0.2330    0.9830 N   0  0  0  0  0
   -8.2790    0.0060    0.3810 O   0  0  0  0  0
   -2.1030   -0.3600    0.5100 C   0  0  0  0  0
   -1.9700   -0.4060    1.7150 O   0  0  0  0  0
   -3.4350    0.0100   -0.0880 C   0  0  0  0  0
   -3.4440    1.5010   -0.4310 C   0  0  0  0  0
   -2.4400    1.7730   -1.5520 C   0  0  0  0  0
   -2.9150    1.0910   -2.8380 C   0  0  0  0  0
   -2.3310    3.2810   -1.7850 C   0  0  0  0  0
   -1.0580   -0.6400   -0.2940 N   0  0  0  0  0
    0.2040   -1.1110    0.2820 C   0  0  0  0  0
    1.3480   -0.7020   -0.6100 C   0  0  0  0  0
    1.1390   -0.4110   -1.7680 O   0  0  0  0  0
    0.1720   -2.6360    0.4030 C   0  0  0  0  0
    1.4480   -3.1200    1.0960 C   0  0  0  0  0
    1.4700   -2.6100    2.5380 C   0  0  0  0  0
    1.4790   -4.6500    1.0950 C   0  0  0  0  0
    2.6020   -0.6590   -0.1200 N   0  0  0  0  0
    3.7010   -0.1750   -0.9600 C   0  0  0  0  0
    4.2240   -1.3080   -1.8040 C   0  0  0  0  0
    3.7280   -2.4110   -1.7130 O   0  0  0  0  0
    4.8250    0.3610   -0.0720 C   0  0  0  0  0
    4.3370    1.5710    0.6820 C   0  0  0  0  0
    3.7430    1.4200    1.9210 C   0  0  0  0  0
    4.4880    2.8320    0.1370 C   0  0  0  0  0
    3.2950    2.5300    2.6120 C   0  0  0  0  0
    4.0400    3.9420    0.8280 C   0  0  0  0  0
    3.4410    3.7910    2.0650 C   0  0  0  0  0
    5.2420   -1.0960   -2.6610 N   0  0  0  0  0
   -4.4320    0.3570    1.7900 H   0  0  0  0  0
   -4.4850   -1.3320    1.2310 H   0  0  0  0  0
   -6.9710   -0.5380    1.9030 H   0  0  0  0  0
   -9.0320   -0.1640    0.9640 H   0  0  0  0  0
   -3.6010   -0.5720   -0.9950 H   0  0  0  0  0
   -4.4430    1.7930   -0.7580 H   0  0  0  0  0
   -3.1680    2.0780    0.4520 H   0  0  0  0  0
   -1.4650    1.3770   -1.2700 H   0  0  0  0  0
   -2.1990    1.2850   -3.6370 H   0  0  0  0  0
   -2.9920    0.0170   -2.6720 H   0  0  0  0  0
   -3.8900    1.4870   -3.1200 H   0  0  0  0  0
   -1.9930    3.7660   -0.8690 H   0  0  0  0  0
   -1.6160    3.4750   -2.5840 H   0  0  0  0  0
   -3.3070    3.6770   -2.0670 H   0  0  0  0  0
   -1.1410   -0.5300   -1.2540 H   0  0  0  0  0
    0.3390   -0.6720    1.2710 H   0  0  0  0  0
   -0.6960   -2.9360    0.9900 H   0  0  0  0  0
    0.1080   -3.0780   -0.5910 H   0  0  0  0  0
    2.3180   -2.7390    0.5620 H   0  0  0  0  0
    2.4100   -2.8950    3.0100 H   0  0  0  0  0
    1.3770   -1.5240    2.5400 H   0  0  0  0  0
    0.6380   -3.0470    3.0910 H   0  0  0  0  0
    1.4640   -5.0130    0.0680 H   0  0  0  0  0
    2.3880   -4.9940    1.5890 H   0  0  0  0  0
    0.6090   -5.0310    1.6290 H   0  0  0  0  0
    2.7790   -0.9480    0.7890 H   0  0  0  0  0
    3.3380    0.6230   -1.6080 H   0  0  0  0  0
    5.1270   -0.4110    0.6370 H   0  0  0  0  0
    5.6770    0.6380   -0.6920 H   0  0  0  0  0
    3.6280    0.4350    2.3490 H   0  0  0  0  0
    4.9560    2.9500   -0.8290 H   0  0  0  0  0
    2.8300    2.4130    3.5800 H   0  0  0  0  0
    4.1590    4.9280    0.4020 H   0  0  0  0  0
    3.0910    4.6580    2.6050 H   0  0  0  0  0
    5.6390   -0.2130   -2.7340 H   0  0  0  0  0
    5.5790   -1.8250   -3.2040 H   0  0  0  0  0
  1  2  1  0  0  0
  1 33  1  0  0  0
  1 34  1  0  0  0
  2  3  2  0  0  0
  2  4  1  0  0  0
  4  5  1  0  0  0
  4 35  1  0  0  0
  5 36  1  0  0  0
  6  7  2  0  0  0
  6  8  1  0  0  0
  6 13  1  0  0  0
  8  9  1  0  0  0
  8 37  1  0  0  0
  8  1  1  0  0  0
  9 10  1  0  0  0
  9 38  1  0  0  0
  9 39  1  0  0  0
 10 11  1  0  0  0
 10 12  1  0  0  0
 10 40  1  0  0  0
 11 41  1  0  0  0
 11 42  1  0  0  0
 11 43  1  0  0  0
 12 44  1  0  0  0
 12 45  1  0  0  0
 12 46  1  0  0  0
 13 14  1  0  0  0
 13 47  1  0  0  0
 14 15  1  0  0  0
 14 17  1  0  0  0
 14 48  1  0  0  0
 15 16  2  0  0  0
 15 21  1  0  0  0
 17 18  1  0  0  0
 17 49  1  0  0  0
 17 50  1  0  0  0
 18 19  1  0  0  0
 18 20  1  0  0  0
 18 51  1  0  0  0
 19 52  1  0  0  0
 19 53  1  0  0  0
 19 54  1  0  0  0
 20 55  1  0  0  0
 20 56  1  0  0  0
 20 57  1  0  0  0
 21 22  1  0  0  0
 21 58  1  0  0  0
 22 23  1  0  0  0
 22 25  1  0  0  0
 22 59  1  0  0  0
 23 24  2  0  0  0
 23 32  1  0  0  0
 25 26  1  0  0  0
 25 60  1  0  0  0
 25 61  1  0  0  0
 26 27  2  0  0  0
 26 28  1  0  0  0
 27 29  1  0  0  0
 27 62  1  0  0  0
 28 30  2  0  0  0
 28 63  1  0  0  0
 29 31  2  0  0  0
 29 64  1  0  0  0
 30 31  1  0  0  0
 30 65  1  0  0  0
 31 66  1  0  0  0
 32 67  1  0  0  0
 32 68  1  0  0  0
M  END
$$$$
