0DX
  CCTOOLS-0919241029

126133  0  0  0  0  0  0  0  0999 V2000
   12.2780   -3.1820    0.4810 C   0  0  0  0  0
  -12.0390    3.9060    1.0660 C   0  0  0  0  0
   -0.0010    3.8560   -1.5290 O   0  0  0  0  0
   -0.0400   -3.9820    1.2670 O   0  0  0  0  0
    3.7040    1.4410   -1.1900 O   0  0  0  0  0
   -3.7390   -1.5520    0.9660 O   0  0  0  0  0
   -1.6640    1.8040   -0.5370 C   0  0  0  0  0
    1.6250   -1.9250    0.2870 C   0  0  0  0  0
    5.9250   -2.0660   -0.1510 C   0  0  0  0  0
   -5.9580    1.9600   -0.0540 C   0  0  0  0  0
    3.1130    4.6490   -0.7390 C   0  0  0  0  0
   -3.1530   -4.7690    0.4730 C   0  0  0  0  0
    4.4250   -2.1800    0.1290 C   0  0  0  0  0
   -4.4610    2.0680   -0.3510 C   0  0  0  0  0
    6.6330   -3.3280    0.3440 C   0  0  0  0  0
   -6.6680    3.2240   -0.5440 C   0  0  0  0  0
    3.9280    5.8230   -1.2850 C   0  0  0  0  0
   -3.9690   -5.9450    1.0140 C   0  0  0  0  0
   10.2330   -4.3650   -0.0510 C   0  0  0  0  0
   10.1580   -2.0110    0.5090 C   0  0  0  0  0
   -9.8540    2.9310    1.4430 C   0  0  0  0  0
  -10.3500    4.0090   -0.6670 C   0  0  0  0  0
    5.8580    8.4720    0.5730 C   0  0  0  0  0
    3.7650    8.1310    1.6870 C   0  0  0  0  0
   -5.8980   -8.5850   -0.8570 C   0  0  0  0  0
   -3.8040   -8.2400   -1.9680 C   0  0  0  0  0
    8.7530   -4.4990    0.3160 C   0  0  0  0  0
    8.6790   -2.1450    0.8760 C   0  0  0  0  0
   -8.3570    3.1210    1.1880 C   0  0  0  0  0
   -8.8530    4.1980   -0.9220 C   0  0  0  0  0
    5.3640    7.6600   -0.6280 C   0  0  0  0  0
    3.2500    7.3150    0.4980 C   0  0  0  0  0
   -5.4050   -7.7780    0.3470 C   0  0  0  0  0
   -3.2900   -7.4300   -0.7750 C   0  0  0  0  0
    2.6360    3.7750   -1.9000 C   0  0  0  0  0
   -2.6770   -3.9000    1.6390 C   0  0  0  0  0
    3.7460   -0.9710   -0.3450 N   0  0  0  0  0
   -3.7820    0.8580    0.1190 N   0  0  0  0  0
    2.3750   -0.8440   -0.1990 C   0  0  0  0  0
   -2.4130    0.7260   -0.0420 C   0  0  0  0  0
    0.5250    2.8030   -1.2290 C   0  0  0  0  0
   -0.5650   -2.9260    0.9730 C   0  0  0  0  0
    2.4990    1.5150   -1.0480 C   0  0  0  0  0
   -2.5360   -1.6310    0.8120 C   0  0  0  0  0
   -0.2950    1.6940   -0.7060 C   0  0  0  0  0
    0.2560   -1.8160    0.4550 C   0  0  0  0  0
    1.7510    0.3580   -0.5360 C   0  0  0  0  0
   -1.7890   -0.4770    0.2910 C   0  0  0  0  0
    0.3530    0.4810   -0.3680 C   0  0  0  0  0
   -0.3910   -0.6000    0.1230 C   0  0  0  0  0
   10.8380   -3.2920    0.7500 N   0  0  0  0  0
  -10.6010    4.0100    0.7810 N   0  0  0  0  0
    4.7380    9.0730    1.2280 O   0  0  0  0  0
   -4.7770   -9.1840   -1.5140 O   0  0  0  0  0
    8.0730   -3.2190    0.0750 N   0  0  0  0  0
   -8.1050    3.1200   -0.2600 N   0  0  0  0  0
    4.3860    6.6620   -0.1700 N   0  0  0  0  0
   -4.4260   -6.7800   -0.1060 N   0  0  0  0  0
    1.8550    2.6510   -1.3770 N   0  0  0  0  0
   -1.8950   -2.7740    1.1210 N   0  0  0  0  0
   12.4350   -2.9610   -0.5740 H   0  0  0  0  0
   12.7010   -2.3810    1.0870 H   0  0  0  0  0
   12.7670   -4.1240    0.7320 H   0  0  0  0  0
  -12.4270    2.9780    0.6440 H   0  0  0  0  0
  -12.1970    3.9080    2.1440 H   0  0  0  0  0
  -12.5600    4.7530    0.6200 H   0  0  0  0  0
   -2.1610    2.7270   -0.7940 H   0  0  0  0  0
    2.1220   -2.8490    0.5420 H   0  0  0  0  0
    6.0870   -1.9550   -1.2230 H   0  0  0  0  0
    6.3260   -1.1960    0.3690 H   0  0  0  0  0
   -6.3690    1.0910   -0.5680 H   0  0  0  0  0
   -6.1090    1.8520    1.0200 H   0  0  0  0  0
    3.7340    4.0560   -0.0680 H   0  0  0  0  0
    2.2490    5.0300   -0.1930 H   0  0  0  0  0
   -2.2890   -5.1480   -0.0740 H   0  0  0  0  0
   -3.7730   -4.1730   -0.1960 H   0  0  0  0  0
    4.0230   -3.0490   -0.3910 H   0  0  0  0  0
    4.2630   -2.2910    1.2010 H   0  0  0  0  0
   -4.3100    2.1760   -1.4250 H   0  0  0  0  0
   -4.0510    2.9380    0.1630 H   0  0  0  0  0
    6.4710   -3.4390    1.4160 H   0  0  0  0  0
    6.2320   -4.1980   -0.1760 H   0  0  0  0  0
   -6.2580    4.0930   -0.0300 H   0  0  0  0  0
   -6.5170    3.3320   -1.6180 H   0  0  0  0  0
    4.7920    5.4420   -1.8310 H   0  0  0  0  0
    3.3070    6.4160   -1.9560 H   0  0  0  0  0
   -3.3490   -6.5410    1.6820 H   0  0  0  0  0
   -4.8330   -5.5660    1.5600 H   0  0  0  0  0
   10.7450   -5.3050    0.1550 H   0  0  0  0  0
   10.3250   -4.1250   -1.1100 H   0  0  0  0  0
   10.2500   -1.7440   -0.5440 H   0  0  0  0  0
   10.6160   -1.2350    1.1220 H   0  0  0  0  0
  -10.1720    1.9690    1.0420 H   0  0  0  0  0
  -10.0470    2.9600    2.5160 H   0  0  0  0  0
  -10.9040    4.8240   -1.1320 H   0  0  0  0  0
  -10.6740    3.0590   -1.0920 H   0  0  0  0  0
    6.3760    7.8130    1.2690 H   0  0  0  0  0
    6.5400    9.2490    0.2310 H   0  0  0  0  0
    2.9340    8.6620    2.1510 H   0  0  0  0  0
    4.2220    7.4630    2.4170 H   0  0  0  0  0
   -6.5810   -9.3640   -0.5190 H   0  0  0  0  0
   -6.4150   -7.9230   -1.5510 H   0  0  0  0  0
   -4.2600   -7.5680   -2.6950 H   0  0  0  0  0
   -2.9730   -8.7690   -2.4340 H   0  0  0  0  0
    8.2950   -5.2750   -0.2970 H   0  0  0  0  0
    8.6620   -4.7660    1.3690 H   0  0  0  0  0
    8.5870   -2.3860    1.9350 H   0  0  0  0  0
    8.1670   -1.2050    0.6700 H   0  0  0  0  0
   -8.0330    4.0700    1.6130 H   0  0  0  0  0
   -7.8030    2.3060    1.6540 H   0  0  0  0  0
   -8.6600    4.1690   -1.9940 H   0  0  0  0  0
   -8.5340    5.1610   -0.5210 H   0  0  0  0  0
    4.8930    8.3270   -1.3500 H   0  0  0  0  0
    6.2080    7.1540   -1.0970 H   0  0  0  0  0
    2.5510    6.5580    0.8510 H   0  0  0  0  0
    2.7450    7.9770   -0.2050 H   0  0  0  0  0
   -6.2490   -7.2730    0.8170 H   0  0  0  0  0
   -4.9350   -8.4490    1.0670 H   0  0  0  0  0
   -2.7860   -8.0950   -0.0740 H   0  0  0  0  0
   -2.5900   -6.6720   -1.1250 H   0  0  0  0  0
    2.0150    4.3680   -2.5710 H   0  0  0  0  0
    3.5000    3.3940   -2.4460 H   0  0  0  0  0
   -3.5410   -3.5210    2.1850 H   0  0  0  0  0
   -2.0570   -4.4960    2.3070 H   0  0  0  0  0
    4.2580   -0.2590   -0.7610 H   0  0  0  0  0
   -4.2910    0.1490    0.5420 H   0  0  0  0  0
  1 61  1  0  0  0
  1 62  1  0  0  0
  1 63  1  0  0  0
  2 52  1  0  0  0
  2 64  1  0  0  0
  2 65  1  0  0  0
  2 66  1  0  0  0
  3 41  2  0  0  0
  6 44  2  0  0  0
  7 45  1  0  0  0
  7 67  1  0  0  0
  8 39  1  0  0  0
  8 68  1  0  0  0
  9 15  1  0  0  0
  9 69  1  0  0  0
  9 70  1  0  0  0
 10 14  1  0  0  0
 10 71  1  0  0  0
 10 72  1  0  0  0
 11 17  1  0  0  0
 11 73  1  0  0  0
 11 74  1  0  0  0
 12 18  1  0  0  0
 12 36  1  0  0  0
 12 75  1  0  0  0
 12 76  1  0  0  0
 13  9  1  0  0  0
 13 77  1  0  0  0
 13 78  1  0  0  0
 14 38  1  0  0  0
 14 79  1  0  0  0
 14 80  1  0  0  0
 15 55  1  0  0  0
 15 81  1  0  0  0
 15 82  1  0  0  0
 16 10  1  0  0  0
 16 83  1  0  0  0
 16 84  1  0  0  0
 17 57  1  0  0  0
 17 85  1  0  0  0
 17 86  1  0  0  0
 18 87  1  0  0  0
 18 88  1  0  0  0
 19 51  1  0  0  0
 19 89  1  0  0  0
 19 90  1  0  0  0
 20 91  1  0  0  0
 20 92  1  0  0  0
 21 29  1  0  0  0
 21 93  1  0  0  0
 21 94  1  0  0  0
 22 52  1  0  0  0
 22 30  1  0  0  0
 22 95  1  0  0  0
 22 96  1  0  0  0
 23 53  1  0  0  0
 23 97  1  0  0  0
 23 98  1  0  0  0
 24 53  1  0  0  0
 24 99  1  0  0  0
 24100  1  0  0  0
 25 33  1  0  0  0
 25 54  1  0  0  0
 25101  1  0  0  0
 25102  1  0  0  0
 26 34  1  0  0  0
 26103  1  0  0  0
 26104  1  0  0  0
 27 19  1  0  0  0
 27 55  1  0  0  0
 27105  1  0  0  0
 27106  1  0  0  0
 28 20  1  0  0  0
 28107  1  0  0  0
 28108  1  0  0  0
 29109  1  0  0  0
 29110  1  0  0  0
 30 56  1  0  0  0
 30111  1  0  0  0
 30112  1  0  0  0
 31 23  1  0  0  0
 31113  1  0  0  0
 31114  1  0  0  0
 32 24  1  0  0  0
 32115  1  0  0  0
 32116  1  0  0  0
 33 58  1  0  0  0
 33117  1  0  0  0
 33118  1  0  0  0
 34119  1  0  0  0
 34120  1  0  0  0
 35 11  1  0  0  0
 35121  1  0  0  0
 35122  1  0  0  0
 36123  1  0  0  0
 36124  1  0  0  0
 37 13  1  0  0  0
 37125  1  0  0  0
 38 40  1  0  0  0
 38126  1  0  0  0
 39 37  1  0  0  0
 40  7  2  0  0  0
 40 48  1  0  0  0
 41 59  1  0  0  0
 42  4  2  0  0  0
 42 46  1  0  0  0
 43  5  2  0  0  0
 44 48  1  0  0  0
 44 60  1  0  0  0
 45 41  1  0  0  0
 45 49  2  0  0  0
 46  8  2  0  0  0
 47 39  2  0  0  0
 47 43  1  0  0  0
 48 50  2  0  0  0
 49 47  1  0  0  0
 50 46  1  0  0  0
 50 49  1  0  0  0
 51  1  1  0  0  0
 51 20  1  0  0  0
 52 21  1  0  0  0
 54 26  1  0  0  0
 55 28  1  0  0  0
 56 16  1  0  0  0
 56 29  1  0  0  0
 57 31  1  0  0  0
 57 32  1  0  0  0
 58 18  1  0  0  0
 58 34  1  0  0  0
 59 35  1  0  0  0
 59 43  1  0  0  0
 60 36  1  0  0  0
 60 42  1  0  0  0
M  END
$$$$
