0E5
  CCTOOLS-1004241120

 23 22  0  0  1  0  0  0  0  0999 V2000
    2.7060   -1.2550    0.2010 C   0  0  0  0  0
    1.3330   -1.0320   -0.4370 C   0  0  0  0  0
    0.7930    0.3370   -0.0180 C   0  0  0  0  0
    1.7560    1.4300   -0.4840 C   0  0  0  0  0
   -1.0460    1.9200   -0.3520 N   0  0  0  0  0
   -0.5800    0.5600   -0.6560 C   0  0  0  0  0
   -1.5600   -0.4420   -0.1030 C   0  0  0  0  0
   -2.3280   -0.1170    0.7710 O   0  0  0  0  0
    3.3920   -0.4760   -0.1310 H   0  0  0  0  0
    2.6120   -1.2190    1.2870 H   0  0  0  0  0
    3.0910   -2.2300   -0.0970 H   0  0  0  0  0
    1.4270   -1.0690   -1.5220 H   0  0  0  0  0
    0.6470   -1.8110   -0.1050 H   0  0  0  0  0
    1.8500    1.3930   -1.5690 H   0  0  0  0  0
    1.3710    2.4050   -0.1850 H   0  0  0  0  0
    2.7340    1.2710   -0.0290 H   0  0  0  0  0
   -1.1250    2.0600    0.6450 H   0  0  0  0  0
   -0.5030    0.4350   -1.7360 H   0  0  0  0  0
   -1.5790   -1.6960   -0.5810 O   0  0  0  0  0
   -2.2250   -2.3030   -0.1950 H   0  0  0  0  0
   -0.4390    2.6110   -0.7670 H   0  0  0  0  0
    0.6700    0.3850    1.4050 O   0  0  0  0  0
    0.0730   -0.2820    1.7710 H   0  0  0  0  0
  1  2  1  0  0  0
  1  9  1  0  0  0
  1 10  1  0  0  0
  1 11  1  0  0  0
  2  3  1  0  0  0
  2 12  1  0  0  0
  2 13  1  0  0  0
  3  6  1  0  0  0
  3 22  1  0  0  0
  4  3  1  0  0  0
  4 14  1  0  0  0
  4 15  1  0  0  0
  4 16  1  0  0  0
  5 17  1  0  0  0
  5 21  1  0  0  0
  6  5  1  0  0  0
  6 18  1  0  0  0
  7  8  2  0  0  0
  7  6  1  0  0  0
  7 19  1  0  0  0
 19 20  1  0  0  0
 22 23  1  0  0  0
M  END
$$$$
