0EA
  CCTOOLS-1004241120

 29 29  0  0  1  0  0  0  0  0999 V2000
   -3.5780    1.5310   -1.1560 O   0  0  0  0  0
   -2.7240    0.7640   -0.4280 C   0  0  0  0  0
   -1.3980    1.1420   -0.2890 C   0  0  0  0  0
   -3.1800   -0.4000    0.1840 C   0  0  0  0  0
   -4.4810   -0.7720    0.0560 O   0  0  0  0  0
   -2.3050   -1.1780    0.9250 C   0  0  0  0  0
   -0.9820   -0.7980    1.0550 C   0  0  0  0  0
   -0.5300    0.3610    0.4510 C   0  0  0  0  0
    0.9110    0.7740    0.6010 C   0  0  0  0  0
    1.3780    0.4120    1.9030 O   0  0  0  0  0
    1.7580    0.0650   -0.4590 C   0  0  0  0  0
    1.5510   -1.3860   -0.3610 N   0  0  0  0  0
    1.8280   -2.0450   -1.6450 C   0  0  0  0  0
    3.2140    0.3810   -0.2330 C   0  0  0  0  0
    3.9980   -0.5110   -0.0130 O   0  0  0  0  0
   -1.0430    2.0470   -0.7600 H   0  0  0  0  0
   -4.6540   -1.3420   -0.7070 H   0  0  0  0  0
   -2.6570   -2.0810    1.4010 H   0  0  0  0  0
   -0.3010   -1.4050    1.6330 H   0  0  0  0  0
    0.9960    1.8530    0.4720 H   0  0  0  0  0
    1.3320   -0.5360    2.0880 H   0  0  0  0  0
    1.4610    0.4090   -1.4500 H   0  0  0  0  0
    2.1120   -1.7820    0.3780 H   0  0  0  0  0
    1.1600   -1.6470   -2.4090 H   0  0  0  0  0
    2.8620   -1.8580   -1.9330 H   0  0  0  0  0
    1.6670   -3.1180   -1.5440 H   0  0  0  0  0
   -3.6190    1.2940   -2.0930 H   0  0  0  0  0
    3.6390    1.6540   -0.2760 O   0  0  0  0  0
    4.5810    1.8070   -0.1250 H   0  0  0  0  0
  1  2  1  0  0  0
  1 27  1  0  0  0
  2  3  2  0  0  0
  2  4  1  0  0  0
  3  8  1  0  0  0
  3 16  1  0  0  0
  4  6  2  0  0  0
  5  4  1  0  0  0
  5 17  1  0  0  0
  6  7  1  0  0  0
  6 18  1  0  0  0
  7 19  1  0  0  0
  8  9  1  0  0  0
  8  7  2  0  0  0
  9 11  1  0  0  0
  9 10  1  0  0  0
  9 20  1  0  0  0
 10 21  1  0  0  0
 11 12  1  0  0  0
 11 22  1  0  0  0
 12 13  1  0  0  0
 12 23  1  0  0  0
 13 24  1  0  0  0
 13 25  1  0  0  0
 13 26  1  0  0  0
 14 11  1  0  0  0
 14 28  1  0  0  0
 15 14  2  0  0  0
 28 29  1  0  0  0
M  END
$$$$
