0J0
  CCTOOLS-0919241029

 57 61  0  0  1  0  0  0  0  0999 V2000
    1.1770   -1.1530   -0.1140 C   0  0  0  0  0
    3.6770   -0.9540   -0.2120 C   0  0  0  0  0
    4.7690    1.1220   -1.0670 C   0  0  0  0  0
    5.3420    0.3900    1.0740 C   0  0  0  0  0
    4.1020   -0.5110    1.1910 C   0  0  0  0  0
    5.9820    2.6350    0.3980 C   0  0  0  0  0
   -5.2040   -1.2400    0.1120 C   0  0  0  0  0
   -5.9920   -2.1680    0.1880 O   0  0  0  0  0
   -5.6780    0.0170    0.0670 N   0  0  0  0  0
   -7.1250    0.2430    0.1120 C   0  0  0  0  0
   -3.8280   -1.5140    0.0780 C   0  0  0  0  0
   -2.9260   -0.4910   -0.0070 C   0  0  0  0  0
   -3.4360    0.8860   -0.0630 C   0  0  0  0  0
   -2.5660    1.9750   -0.1520 C   0  0  0  0  0
   -3.0780    3.2520   -0.2020 C   0  0  0  0  0
   -4.4500    3.4610   -0.1660 C   0  0  0  0  0
   -5.3210    2.3960   -0.0780 C   0  0  0  0  0
   -4.8250    1.0980   -0.0200 C   0  0  0  0  0
   -1.5970   -0.7400   -0.0400 O   0  0  0  0  0
   -1.1920   -2.1090    0.0190 C   0  0  0  0  0
    0.3120   -2.1910   -0.0290 C   0  0  0  0  0
    1.0560   -3.3030    0.0050 N   0  0  0  0  0
    2.2980   -2.9750   -0.0560 N   0  0  0  0  0
    2.4170   -1.6960   -0.1280 N   0  0  0  0  0
    6.3490   -0.3120    0.1340 C   0  0  0  0  0
    5.9700    0.1720   -1.2820 C   0  0  0  0  0
    4.9330    1.6090    0.3280 N   0  3  0  0  0
    3.6610    2.1300    0.8460 C   0  0  0  0  0
    3.4870    0.2740   -1.1070 C   0  0  0  0  0
    0.9280   -0.1040   -0.1650 H   0  0  0  0  0
    4.4480   -1.5960   -0.6380 H   0  0  0  0  0
    4.7550    1.9380   -1.7900 H   0  0  0  0  0
    5.7770    0.6170    2.0470 H   0  0  0  0  0
    3.2900    0.0450    1.6600 H   0  0  0  0  0
    4.3420   -1.3870    1.7930 H   0  0  0  0  0
    5.7110    3.4760   -0.2400 H   0  0  0  0  0
    6.0860    2.9780    1.4270 H   0  0  0  0  0
    6.9270    2.2110    0.0590 H   0  0  0  0  0
   -7.6400   -0.7150    0.1800 H   0  0  0  0  0
   -7.3710    0.8500    0.9820 H   0  0  0  0  0
   -7.4400    0.7610   -0.7940 H   0  0  0  0  0
   -3.4810   -2.5360    0.1200 H   0  0  0  0  0
   -1.4980    1.8160   -0.1800 H   0  0  0  0  0
   -2.4080    4.0960   -0.2710 H   0  0  0  0  0
   -4.8380    4.4680   -0.2060 H   0  0  0  0  0
   -6.3860    2.5700   -0.0500 H   0  0  0  0  0
   -1.5500   -2.5550    0.9470 H   0  0  0  0  0
   -1.6120   -2.6500   -0.8290 H   0  0  0  0  0
    7.3680   -0.0110    0.3770 H   0  0  0  0  0
    6.2440   -1.3940    0.2050 H   0  0  0  0  0
    5.6800   -0.6730   -1.9060 H   0  0  0  0  0
    6.8030    0.7100   -1.7340 H   0  0  0  0  0
    2.8980    1.3540    0.7850 H   0  0  0  0  0
    3.7890    2.4330    1.8860 H   0  0  0  0  0
    3.3520    2.9910    0.2530 H   0  0  0  0  0
    3.2930   -0.0460   -2.1300 H   0  0  0  0  0
    2.6480    0.8660   -0.7410 H   0  0  0  0  0
  1 21  2  0  0  0
  1 24  1  0  0  0
  1 30  1  0  0  0
  2  5  1  0  0  0
  2 24  1  0  0  0
  2 29  1  0  0  0
  2 31  1  0  0  0
  3 26  1  0  0  0
  3 27  1  0  0  0
  3 29  1  0  0  0
  3 32  1  0  0  0
  4  5  1  0  0  0
  4 25  1  0  0  0
  4 27  1  0  0  0
  4 33  1  0  0  0
  5 34  1  0  0  0
  5 35  1  0  0  0
  6 27  1  0  0  0
  6 36  1  0  0  0
  6 37  1  0  0  0
  6 38  1  0  0  0
  7  8  2  0  0  0
  7  9  1  0  0  0
  7 11  1  0  0  0
  9 10  1  0  0  0
  9 18  1  0  0  0
 10 39  1  0  0  0
 10 40  1  0  0  0
 10 41  1  0  0  0
 11 12  2  0  0  0
 11 42  1  0  0  0
 12 13  1  0  0  0
 12 19  1  0  0  0
 13 14  2  0  0  0
 13 18  1  0  0  0
 14 15  1  0  0  0
 14 43  1  0  0  0
 15 16  2  0  0  0
 15 44  1  0  0  0
 16 17  1  0  0  0
 16 45  1  0  0  0
 17 18  2  0  0  0
 17 46  1  0  0  0
 19 20  1  0  0  0
 20 21  1  0  0  0
 20 47  1  0  0  0
 20 48  1  0  0  0
 21 22  1  0  0  0
 22 23  2  0  0  0
 23 24  1  0  0  0
 25 26  1  0  0  0
 25 49  1  0  0  0
 25 50  1  0  0  0
 26 51  1  0  0  0
 26 52  1  0  0  0
 27 28  1  0  0  0
 28 53  1  0  0  0
 28 54  1  0  0  0
 28 55  1  0  0  0
 29 56  1  0  0  0
 29 57  1  0  0  0
M  CHG  1  27   1
M  END
$$$$
