0JV
  CCTOOLS-0919241029

 87 90  0  0  1  0  0  0  0  0999 V2000
   -8.8460    1.3690   -2.3800 O   0  0  0  0  0
  -10.1640    1.1340   -1.8810 C   0  0  0  0  0
   -7.8290    1.3320   -1.4790 C   0  0  0  0  0
   -8.0940    1.0680   -0.1430 C   0  0  0  0  0
   -7.0590    1.0300    0.7710 C   0  0  0  0  0
   -5.7590    1.2550    0.3540 C   0  0  0  0  0
   -5.4930    1.5180   -0.9760 C   0  0  0  0  0
   -6.5240    1.5510   -1.8950 C   0  0  0  0  0
   -4.4410    1.2070    1.5230 S   0  0  0  0  0
   -3.4460    2.1010    1.0420 O   0  0  0  0  0
   -5.0380    1.3250    2.8070 O   0  0  0  0  0
   -3.7800   -0.3100    1.4520 N   0  0  0  0  0
   -4.2040   -1.3390    2.4050 C   0  0  0  0  0
   -4.9320   -2.4570    1.6580 C   0  0  0  0  0
   -5.2970   -3.5730    2.6390 C   0  0  0  0  0
   -6.2070   -1.9000    1.0210 C   0  0  0  0  0
   -2.7700   -0.6230    0.4380 C   0  0  0  0  0
   -1.3730   -0.4380    1.0340 C   0  0  0  0  0
   -1.1710   -1.3950    2.0760 O   0  0  0  0  0
   -0.3220   -0.6440   -0.0580 C   0  0  0  0  0
    1.0080   -0.3510    0.4830 N   0  0  0  0  0
    2.0020    0.0310   -0.3430 C   0  0  0  0  0
    1.7960    0.1310   -1.5360 O   0  0  0  0  0
    3.2240    0.3000    0.1550 O   0  0  0  0  0
    4.2470    0.7050   -0.7930 C   0  0  0  0  0
    4.2730    2.2400   -0.9360 C   0  0  0  0  0
    5.7480    2.6470   -1.0880 C   0  0  0  0  0
    6.1380    3.4160    0.0690 O   0  0  0  0  0
    7.5590    3.2080    0.2170 C   0  0  0  0  0
    7.7720    1.7100   -0.0920 C   0  0  0  0  0
    6.5740    1.3330   -1.0160 C   0  0  0  0  0
    5.6550    0.3500   -0.2550 C   0  0  0  0  0
    7.7500    0.9240    1.1440 N   0  0  0  0  0
    8.3960   -0.2570    1.2030 C   0  0  0  0  0
    8.9980   -0.6700    0.2310 O   0  0  0  0  0
    8.3760   -0.9800    2.3390 O   0  0  0  0  0
    9.0940   -2.2420    2.3300 C   0  0  0  0  0
   -0.3670   -2.0940   -0.5430 C   0  0  0  0  0
    1.8960   -2.6270   -1.4710 C   0  0  0  0  0
    2.7650   -2.7900   -2.5340 C   0  0  0  0  0
    2.3190   -2.5920   -3.8270 C   0  0  0  0  0
    1.0050   -2.2310   -4.0580 C   0  0  0  0  0
    0.1360   -2.0680   -2.9950 C   0  0  0  0  0
    0.5820   -2.2660   -1.7020 C   0  0  0  0  0
  -10.2100    0.1430   -1.4280 H   0  0  0  0  0
  -10.4090    1.8870   -1.1320 H   0  0  0  0  0
  -10.8790    1.1920   -2.7010 H   0  0  0  0  0
   -9.1090    0.8930    0.1830 H   0  0  0  0  0
   -7.2640    0.8250    1.8110 H   0  0  0  0  0
   -4.4770    1.6940   -1.2990 H   0  0  0  0  0
   -6.3150    1.7530   -2.9350 H   0  0  0  0  0
   -3.3290   -1.7490    2.9110 H   0  0  0  0  0
   -4.8750   -0.8970    3.1420 H   0  0  0  0  0
   -4.2820   -2.8570    0.8790 H   0  0  0  0  0
   -5.9470   -3.1740    3.4180 H   0  0  0  0  0
   -5.8160   -4.3700    2.1060 H   0  0  0  0  0
   -4.3890   -3.9700    3.0920 H   0  0  0  0  0
   -6.7920   -1.3780    1.7780 H   0  0  0  0  0
   -5.9410   -1.2050    0.2240 H   0  0  0  0  0
   -6.7950   -2.7190    0.6090 H   0  0  0  0  0
   -2.8920   -1.6550    0.1100 H   0  0  0  0  0
   -2.8930    0.0450   -0.4150 H   0  0  0  0  0
   -1.2820    0.5680    1.4410 H   0  0  0  0  0
   -1.2370   -2.3140    1.7850 H   0  0  0  0  0
   -0.5300    0.0250   -0.8930 H   0  0  0  0  0
    1.1720   -0.4310    1.4360 H   0  0  0  0  0
    4.0760    0.2340   -1.7610 H   0  0  0  0  0
    3.7100    2.5420   -1.8190 H   0  0  0  0  0
    3.8470    2.7040   -0.0470 H   0  0  0  0  0
    5.9260    3.1900   -2.0160 H   0  0  0  0  0
    8.1080    3.8240   -0.4950 H   0  0  0  0  0
    7.8720    3.4360    1.2360 H   0  0  0  0  0
    8.7110    1.5600   -0.6240 H   0  0  0  0  0
    6.8940    0.9540   -1.9870 H   0  0  0  0  0
    5.6990    0.5330    0.8180 H   0  0  0  0  0
    5.9220   -0.6820   -0.4830 H   0  0  0  0  0
    7.2690    1.2530    1.9200 H   0  0  0  0  0
    8.6760   -2.8920    1.5610 H   0  0  0  0  0
   10.1470   -2.0590    2.1180 H   0  0  0  0  0
    8.9970   -2.7220    3.3040 H   0  0  0  0  0
   -0.0720   -2.7580    0.2690 H   0  0  0  0  0
   -1.3790   -2.3390   -0.8640 H   0  0  0  0  0
    2.2430   -2.7860   -0.4610 H   0  0  0  0  0
    3.7920   -3.0720   -2.3540 H   0  0  0  0  0
    2.9980   -2.7190   -4.6580 H   0  0  0  0  0
    0.6570   -2.0750   -5.0690 H   0  0  0  0  0
   -0.8910   -1.7860   -3.1750 H   0  0  0  0  0
  1  2  1  0  0  0
  1  3  1  0  0  0
  2 45  1  0  0  0
  2 46  1  0  0  0
  2 47  1  0  0  0
  3  8  1  0  0  0
  4  3  2  0  0  0
  4  5  1  0  0  0
  4 48  1  0  0  0
  5  6  2  0  0  0
  5 49  1  0  0  0
  6  7  1  0  0  0
  6  9  1  0  0  0
  7 50  1  0  0  0
  8  7  2  0  0  0
  8 51  1  0  0  0
  9 11  2  0  0  0
  9 12  1  0  0  0
 10  9  2  0  0  0
 12 17  1  0  0  0
 12 13  1  0  0  0
 13 14  1  0  0  0
 13 52  1  0  0  0
 13 53  1  0  0  0
 14 16  1  0  0  0
 14 54  1  0  0  0
 15 14  1  0  0  0
 15 55  1  0  0  0
 15 56  1  0  0  0
 15 57  1  0  0  0
 16 58  1  0  0  0
 16 59  1  0  0  0
 16 60  1  0  0  0
 17 18  1  0  0  0
 17 61  1  0  0  0
 17 62  1  0  0  0
 18 19  1  0  0  0
 18 63  1  0  0  0
 19 64  1  0  0  0
 20 21  1  0  0  0
 20 18  1  0  0  0
 20 65  1  0  0  0
 21 22  1  0  0  0
 21 66  1  0  0  0
 22 24  1  0  0  0
 23 22  2  0  0  0
 24 25  1  0  0  0
 25 26  1  0  0  0
 25 67  1  0  0  0
 26 68  1  0  0  0
 26 69  1  0  0  0
 27 26  1  0  0  0
 27 70  1  0  0  0
 28 27  1  0  0  0
 29 28  1  0  0  0
 29 71  1  0  0  0
 29 72  1  0  0  0
 30 29  1  0  0  0
 30 31  1  0  0  0
 30 73  1  0  0  0
 31 27  1  0  0  0
 31 74  1  0  0  0
 32 31  1  0  0  0
 32 25  1  0  0  0
 32 75  1  0  0  0
 32 76  1  0  0  0
 33 30  1  0  0  0
 33 77  1  0  0  0
 34 33  1  0  0  0
 35 34  2  0  0  0
 36 34  1  0  0  0
 37 36  1  0  0  0
 37 78  1  0  0  0
 37 79  1  0  0  0
 37 80  1  0  0  0
 38 20  1  0  0  0
 38 81  1  0  0  0
 38 82  1  0  0  0
 39 44  1  0  0  0
 39 83  1  0  0  0
 40 39  2  0  0  0
 40 84  1  0  0  0
 41 42  2  0  0  0
 41 40  1  0  0  0
 41 85  1  0  0  0
 42 43  1  0  0  0
 42 86  1  0  0  0
 43 44  2  0  0  0
 43 87  1  0  0  0
 44 38  1  0  0  0
M  END
$$$$
