0L8
  CCTOOLS-0919241030

 34 36  0  0  0  0  0  0  0  0999 V2000
   -3.0760    0.6090   -0.2800 C   0  0  0  0  0
   -2.6490   -0.7050   -0.1950 C   0  0  0  0  0
   -1.3030   -0.9970   -0.0970 C   0  0  0  0  0
   -0.3660    0.0350   -0.0860 C   0  0  0  0  0
   -0.8000    1.3670   -0.1740 C   0  0  0  0  0
   -2.1610    1.6430   -0.2710 C   0  0  0  0  0
    1.0800   -0.2730    0.0180 C   0  0  0  0  0
    1.7360   -0.9110   -1.0330 C   0  0  0  0  0
    3.0820   -1.1960   -0.9330 C   0  0  0  0  0
    3.7830   -0.8470    0.2140 C   0  0  0  0  0
    3.1320   -0.2120    1.2630 C   0  0  0  0  0
    1.7880    0.0820    1.1660 C   0  0  0  0  0
    0.1850    2.4750   -0.1630 C   0  0  0  0  0
    5.1090   -1.1300    0.3100 O   0  0  0  0  0
   -0.7300   -2.7950    0.0210 BR  0  0  0  0  0
   -4.5480    0.9120   -0.3920 C   0  0  0  0  0
   -5.1030    1.0670    0.9160 O   0  0  0  0  0
    1.3210    2.6580   -1.0750 C   0  0  0  0  0
    0.2210    3.5330    0.6890 C   0  0  0  0  0
    1.9290    3.7920   -0.6870 C   0  0  0  0  0
    1.2680    4.3050    0.3620 O   0  0  0  0  0
   -3.3730   -1.5060   -0.2030 H   0  0  0  0  0
   -2.5010    2.6650   -0.3380 H   0  0  0  0  0
    1.1910   -1.1830   -1.9250 H   0  0  0  0  0
    3.5910   -1.6900   -1.7470 H   0  0  0  0  0
    3.6810    0.0580    2.1530 H   0  0  0  0  0
    1.2840    0.5800    1.9800 H   0  0  0  0  0
    5.6850   -0.4270   -0.0190 H   0  0  0  0  0
   -4.6880    1.8340   -0.9570 H   0  0  0  0  0
   -5.0510    0.0920   -0.9050 H   0  0  0  0  0
   -6.0490    1.2650    0.9210 H   0  0  0  0  0
    1.6100    2.0130   -1.8910 H   0  0  0  0  0
   -0.4760    3.7200    1.4920 H   0  0  0  0  0
    2.8060    4.2230   -1.1470 H   0  0  0  0  0
  1  2  2  0  0  0
  1  6  1  0  0  0
  2  3  1  0  0  0
  2 22  1  0  0  0
  3 15  1  0  0  0
  3  4  2  0  0  0
  4  7  1  0  0  0
  5 13  1  0  0  0
  5  4  1  0  0  0
  6  5  2  0  0  0
  6 23  1  0  0  0
  7  8  2  0  0  0
  7 12  1  0  0  0
  8  9  1  0  0  0
  8 24  1  0  0  0
  9 10  2  0  0  0
  9 25  1  0  0  0
 10 14  1  0  0  0
 11 10  1  0  0  0
 11 26  1  0  0  0
 12 11  2  0  0  0
 12 27  1  0  0  0
 13 19  2  0  0  0
 13 18  1  0  0  0
 14 28  1  0  0  0
 16 17  1  0  0  0
 16  1  1  0  0  0
 16 29  1  0  0  0
 16 30  1  0  0  0
 17 31  1  0  0  0
 18 20  2  0  0  0
 18 32  1  0  0  0
 19 21  1  0  0  0
 19 33  1  0  0  0
 20 34  1  0  0  0
 21 20  1  0  0  0
M  END
$$$$
