0MC
  CCTOOLS-0919241030

 91 94  0  0  1  0  0  0  0  0999 V2000
   -7.7650   -2.3680   -0.4830 C   0  0  0  0  0
   -6.3060   -1.9190   -0.5940 C   0  0  0  0  0
   -5.9360   -1.0830    0.6330 C   0  0  0  0  0
   -6.7570    0.2080    0.6370 C   0  0  0  0  0
   -6.3870    1.0440    1.8630 C   0  0  0  0  0
   -4.8970    1.3880    1.8150 C   0  0  0  0  0
   -4.0750    0.0970    1.8110 C   0  0  0  0  0
   -4.4460   -0.7390    0.5840 C   0  0  0  0  0
   -4.1670    0.0070   -0.6030 O   0  0  0  0  0
   -3.6360   -2.0100    0.5800 C   0  0  0  0  0
   -4.0980   -3.0220    1.0510 O   0  0  0  0  0
   -2.2650   -2.0190   -0.0060 C   0  0  0  0  0
   -1.7400   -0.9760   -0.3370 O   0  0  0  0  0
   -1.6090   -3.1850   -0.1680 N   0  0  0  0  0
   -2.2860   -4.4660    0.0800 C   0  0  0  0  0
   -2.1320   -5.3530   -1.1590 C   0  0  0  0  0
   -0.6480   -5.4840   -1.5060 C   0  0  0  0  0
   -0.0730   -4.1020   -1.8270 C   0  0  0  0  0
   -0.2060   -3.2010   -0.6020 C   0  0  0  0  0
    0.2290   -1.8020   -0.9570 C   0  0  0  0  0
   -0.2490   -1.2470   -1.9180 O   0  0  0  0  0
    1.1460   -1.1730   -0.2060 O   0  0  0  0  0
    1.5170    0.1720   -0.6070 C   0  0  0  0  0
    2.9680    0.4430   -0.2030 C   0  0  0  0  0
    3.8970   -0.4840   -0.9890 C   0  0  0  0  0
    5.3260   -0.2170   -0.5920 C   0  0  0  0  0
    5.8930   -0.9180    0.4570 C   0  0  0  0  0
    6.0690    0.7230   -1.2810 C   0  0  0  0  0
    7.3810    0.9710   -0.9200 C   0  0  0  0  0
    7.9530    0.2770    0.1330 C   0  0  0  0  0
    9.2430    0.5200    0.4890 O   0  0  0  0  0
    9.9500    1.5050   -0.2670 C   0  0  0  0  0
    7.2060   -0.6740    0.8230 C   0  0  0  0  0
    7.7650   -1.3610    1.8550 O   0  0  0  0  0
    6.9400   -2.3220    2.5170 C   0  0  0  0  0
    0.6120    1.1660    0.0740 C   0  0  0  0  0
    0.1500    2.2670   -0.6200 C   0  0  0  0  0
    0.2410    0.9730    1.3920 C   0  0  0  0  0
   -0.5890    1.8830    2.0200 C   0  0  0  0  0
   -1.0490    2.9890    1.3310 C   0  0  0  0  0
   -0.6830    3.1820    0.0080 C   0  0  0  0  0
   -1.1330    4.2700   -0.6720 O   0  0  0  0  0
   -1.9820    5.1730    0.0400 C   0  0  0  0  0
   -2.3800    6.3090   -0.8670 C   0  0  0  0  0
   -1.9770    6.3410   -2.0060 O   0  0  0  0  0
   -3.1810    7.2840   -0.4100 O   0  0  0  0  0
   -8.0290   -2.9640   -1.3570 H   0  0  0  0  0
   -7.8930   -2.9680    0.4180 H   0  0  0  0  0
   -8.4110   -1.4920   -0.4320 H   0  0  0  0  0
   -5.6590   -2.7950   -0.6450 H   0  0  0  0  0
   -6.1780   -1.3190   -1.4950 H   0  0  0  0  0
   -6.1480   -1.6520    1.5380 H   0  0  0  0  0
   -6.5450    0.7770   -0.2680 H   0  0  0  0  0
   -7.8190   -0.0370    0.6720 H   0  0  0  0  0
   -6.9720    1.9640    1.8660 H   0  0  0  0  0
   -6.5990    0.4750    2.7690 H   0  0  0  0  0
   -4.6840    1.9570    0.9100 H   0  0  0  0  0
   -4.6330    1.9840    2.6880 H   0  0  0  0  0
   -3.0130    0.3430    1.7760 H   0  0  0  0  0
   -4.2870   -0.4720    2.7160 H   0  0  0  0  0
   -3.2390    0.2600   -0.7000 H   0  0  0  0  0
   -1.8330   -4.9580    0.9410 H   0  0  0  0  0
   -3.3440   -4.2880    0.2740 H   0  0  0  0  0
   -2.5460   -6.3400   -0.9530 H   0  0  0  0  0
   -2.6640   -4.9030   -1.9970 H   0  0  0  0  0
   -0.1120   -5.9110   -0.6580 H   0  0  0  0  0
   -0.5340   -6.1350   -2.3730 H   0  0  0  0  0
    0.9780   -4.1990   -2.0980 H   0  0  0  0  0
   -0.6240   -3.6640   -2.6600 H   0  0  0  0  0
    0.4210   -3.5870    0.2020 H   0  0  0  0  0
    1.4160    0.2700   -1.6880 H   0  0  0  0  0
    3.2180    1.4810   -0.4240 H   0  0  0  0  0
    3.0890    0.2590    0.8640 H   0  0  0  0  0
    3.6470   -1.5220   -0.7690 H   0  0  0  0  0
    3.7760   -0.3000   -2.0570 H   0  0  0  0  0
    5.3120   -1.6550    0.9910 H   0  0  0  0  0
    5.6240    1.2650   -2.1020 H   0  0  0  0  0
    7.9600    1.7060   -1.4600 H   0  0  0  0  0
   10.9650    1.6000    0.1190 H   0  0  0  0  0
    9.9870    1.2020   -1.3140 H   0  0  0  0  0
    9.4380    2.4640   -0.1840 H   0  0  0  0  0
    7.5060   -2.7970    3.3180 H   0  0  0  0  0
    6.0670   -1.8220    2.9370 H   0  0  0  0  0
    6.6170   -3.0780    1.8020 H   0  0  0  0  0
    0.4380    2.4160   -1.6500 H   0  0  0  0  0
    0.5990    0.1080    1.9320 H   0  0  0  0  0
   -0.8790    1.7290    3.0490 H   0  0  0  0  0
   -1.6980    3.7000    1.8220 H   0  0  0  0  0
   -2.8750    4.6450    0.3740 H   0  0  0  0  0
   -1.4490    5.5680    0.9040 H   0  0  0  0  0
   -3.4080    7.9910   -1.0290 H   0  0  0  0  0
  1  2  1  0  0  0
  1 47  1  0  0  0
  1 48  1  0  0  0
  1 49  1  0  0  0
  2 50  1  0  0  0
  2 51  1  0  0  0
  3  8  1  0  0  0
  3  2  1  0  0  0
  3 52  1  0  0  0
  4  3  1  0  0  0
  4 53  1  0  0  0
  4 54  1  0  0  0
  5  6  1  0  0  0
  5  4  1  0  0  0
  5 55  1  0  0  0
  5 56  1  0  0  0
  6  7  1  0  0  0
  6 57  1  0  0  0
  6 58  1  0  0  0
  7  8  1  0  0  0
  7 59  1  0  0  0
  7 60  1  0  0  0
  8 10  1  0  0  0
  9  8  1  0  0  0
  9 61  1  0  0  0
 10 12  1  0  0  0
 10 11  2  0  0  0
 12 13  2  0  0  0
 14 12  1  0  0  0
 14 19  1  0  0  0
 15 14  1  0  0  0
 15 16  1  0  0  0
 15 62  1  0  0  0
 15 63  1  0  0  0
 16 17  1  0  0  0
 16 64  1  0  0  0
 16 65  1  0  0  0
 17 18  1  0  0  0
 17 66  1  0  0  0
 17 67  1  0  0  0
 18 68  1  0  0  0
 18 69  1  0  0  0
 19 18  1  0  0  0
 19 70  1  0  0  0
 20 21  2  0  0  0
 20 19  1  0  0  0
 22 20  1  0  0  0
 23 22  1  0  0  0
 23 71  1  0  0  0
 24 23  1  0  0  0
 24 72  1  0  0  0
 24 73  1  0  0  0
 25 26  1  0  0  0
 25 24  1  0  0  0
 25 74  1  0  0  0
 25 75  1  0  0  0
 26 27  1  0  0  0
 27 33  2  0  0  0
 27 76  1  0  0  0
 28 26  2  0  0  0
 28 29  1  0  0  0
 28 77  1  0  0  0
 29 30  2  0  0  0
 29 78  1  0  0  0
 30 33  1  0  0  0
 30 31  1  0  0  0
 32 31  1  0  0  0
 32 79  1  0  0  0
 32 80  1  0  0  0
 32 81  1  0  0  0
 33 34  1  0  0  0
 34 35  1  0  0  0
 35 82  1  0  0  0
 35 83  1  0  0  0
 35 84  1  0  0  0
 36 23  1  0  0  0
 37 36  2  0  0  0
 37 85  1  0  0  0
 38 36  1  0  0  0
 38 86  1  0  0  0
 39 38  2  0  0  0
 39 87  1  0  0  0
 40 41  2  0  0  0
 40 39  1  0  0  0
 40 88  1  0  0  0
 41 37  1  0  0  0
 42 41  1  0  0  0
 43 42  1  0  0  0
 43 89  1  0  0  0
 43 90  1  0  0  0
 44 43  1  0  0  0
 45 44  2  0  0  0
 46 44  1  0  0  0
 46 91  1  0  0  0
M  END
$$$$
