0MD
  CCTOOLS-0919241030

 91 94  0  0  1  0  0  0  0  0999 V2000
    6.7180   -1.6810    1.2580 C   0  0  0  0  0
    5.5640   -0.8690    0.6650 C   0  0  0  0  0
    6.0610    0.5310    0.3000 C   0  0  0  0  0
    7.1000    0.4270   -0.8190 C   0  0  0  0  0
    7.5970    1.8270   -1.1840 C   0  0  0  0  0
    6.4190    2.6780   -1.6610 C   0  0  0  0  0
    5.3800    2.7820   -0.5430 C   0  0  0  0  0
    4.8830    1.3820   -0.1770 C   0  0  0  0  0
    4.2880    0.7730   -1.3240 O   0  0  0  0  0
    3.8590    1.4840    0.9250 C   0  0  0  0  0
    4.2120    1.4750    2.0800 O   0  0  0  0  0
    2.4110    1.5960    0.5890 C   0  0  0  0  0
    1.7590    0.5950    0.3750 O   0  0  0  0  0
    1.8260    2.8080    0.5220 N   0  0  0  0  0
    2.5690    4.0190    0.8960 C   0  0  0  0  0
    2.4940    5.0210   -0.2600 C   0  0  0  0  0
    1.0270    5.2700   -0.6200 C   0  0  0  0  0
    0.3830    3.9580   -1.0740 C   0  0  0  0  0
    0.4360    2.9450    0.0680 C   0  0  0  0  0
   -0.0720    1.6110   -0.4170 C   0  0  0  0  0
    0.4700    1.0580   -1.3430 O   0  0  0  0  0
   -1.1280    1.0380    0.1820 O   0  0  0  0  0
   -1.5630   -0.2460   -0.3370 C   0  0  0  0  0
   -3.0710   -0.3980   -0.1270 C   0  0  0  0  0
   -3.8100    0.6490   -0.9640 C   0  0  0  0  0
   -5.2960    0.5000   -0.7560 C   0  0  0  0  0
   -5.9240    1.2010    0.2560 C   0  0  0  0  0
   -6.0270   -0.3340   -1.5820 C   0  0  0  0  0
   -7.3900   -0.4730   -1.3960 C   0  0  0  0  0
   -8.0260    0.2230   -0.3800 C   0  0  0  0  0
   -9.3660    0.0870   -0.1960 O   0  0  0  0  0
  -10.0570   -0.7910   -1.0870 C   0  0  0  0  0
   -7.2900    1.0660    0.4470 C   0  0  0  0  0
   -7.9090    1.7510    1.4460 O   0  0  0  0  0
   -7.0910    2.5970    2.2560 C   0  0  0  0  0
   -0.8410   -1.3520    0.3890 C   0  0  0  0  0
   -0.3950   -2.4590   -0.3070 C   0  0  0  0  0
   -0.6210   -1.2550    1.7500 C   0  0  0  0  0
    0.0460   -2.2660    2.4190 C   0  0  0  0  0
    0.4940   -3.3740    1.7270 C   0  0  0  0  0
    0.2690   -3.4760    0.3620 C   0  0  0  0  0
    0.7080   -4.5660   -0.3210 O   0  0  0  0  0
    1.3950   -5.5690    0.4310 C   0  0  0  0  0
    1.8040   -6.6930   -0.4870 C   0  0  0  0  0
    1.5350   -6.6400   -1.6630 O   0  0  0  0  0
    2.4670   -7.7520    0.0030 O   0  0  0  0  0
    6.3630   -2.6790    1.5190 H   0  0  0  0  0
    7.5210   -1.7610    0.5260 H   0  0  0  0  0
    7.0900   -1.1830    2.1530 H   0  0  0  0  0
    5.1920   -1.3680   -0.2290 H   0  0  0  0  0
    4.7610   -0.7900    1.3980 H   0  0  0  0  0
    6.5150    0.9950    1.1750 H   0  0  0  0  0
    7.9400   -0.1800   -0.4790 H   0  0  0  0  0
    6.6470   -0.0380   -1.6940 H   0  0  0  0  0
    8.0510    2.2920   -0.3090 H   0  0  0  0  0
    8.3380    1.7530   -1.9810 H   0  0  0  0  0
    6.7730    3.6760   -1.9210 H   0  0  0  0  0
    5.9650    2.2140   -2.5360 H   0  0  0  0  0
    5.8330    3.2470    0.3330 H   0  0  0  0  0
    4.5400    3.3880   -0.8820 H   0  0  0  0  0
    3.4910    1.2200   -1.6390 H   0  0  0  0  0
    2.1260    4.4580    1.7900 H   0  0  0  0  0
    3.6100    3.7630    1.0940 H   0  0  0  0  0
    2.9590    5.9600    0.0410 H   0  0  0  0  0
    3.0180    4.6170   -1.1260 H   0  0  0  0  0
    0.4990    5.6510    0.2540 H   0  0  0  0  0
    0.9700    6.0010   -1.4260 H   0  0  0  0  0
   -0.6550    4.1410   -1.3520 H   0  0  0  0  0
    0.9260    3.5640   -1.9330 H   0  0  0  0  0
   -0.1810    3.2950    0.8960 H   0  0  0  0  0
   -1.3380   -0.3030   -1.4020 H   0  0  0  0  0
   -3.3830   -1.3960   -0.4350 H   0  0  0  0  0
   -3.3070   -0.2520    0.9280 H   0  0  0  0  0
   -3.4990    1.6470   -0.6550 H   0  0  0  0  0
   -3.5740    0.5030   -2.0180 H   0  0  0  0  0
   -5.3510    1.8540    0.8970 H   0  0  0  0  0
   -5.5330   -0.8770   -2.3740 H   0  0  0  0  0
   -7.9590   -1.1250   -2.0430 H   0  0  0  0  0
  -11.1170   -0.8080   -0.8310 H   0  0  0  0  0
   -9.9370   -0.4380   -2.1110 H   0  0  0  0  0
   -9.6460   -1.7970   -0.9980 H   0  0  0  0  0
   -7.7080    3.0830    3.0120 H   0  0  0  0  0
   -6.3220    2.0000    2.7440 H   0  0  0  0  0
   -6.6200    3.3550    1.6300 H   0  0  0  0  0
   -0.5640   -2.5320   -1.3710 H   0  0  0  0  0
   -0.9700   -0.3890    2.2930 H   0  0  0  0  0
    0.2210   -2.1860    3.4810 H   0  0  0  0  0
    1.0150   -4.1630    2.2500 H   0  0  0  0  0
    2.2820   -5.1350    0.8910 H   0  0  0  0  0
    0.7350   -5.9560    1.2070 H   0  0  0  0  0
    2.7080   -8.4470   -0.6240 H   0  0  0  0  0
  1 47  1  0  0  0
  1 48  1  0  0  0
  1 49  1  0  0  0
  2  1  1  0  0  0
  2 50  1  0  0  0
  2 51  1  0  0  0
  3  4  1  0  0  0
  3  2  1  0  0  0
  3 52  1  0  0  0
  4 53  1  0  0  0
  4 54  1  0  0  0
  5  4  1  0  0  0
  5 55  1  0  0  0
  5 56  1  0  0  0
  6  5  1  0  0  0
  6 57  1  0  0  0
  6 58  1  0  0  0
  7  6  1  0  0  0
  7  8  1  0  0  0
  7 59  1  0  0  0
  7 60  1  0  0  0
  8  9  1  0  0  0
  8  3  1  0  0  0
  9 61  1  0  0  0
 10  8  1  0  0  0
 11 10  2  0  0  0
 12 10  1  0  0  0
 12 13  2  0  0  0
 14 12  1  0  0  0
 15 14  1  0  0  0
 15 62  1  0  0  0
 15 63  1  0  0  0
 16 15  1  0  0  0
 16 64  1  0  0  0
 16 65  1  0  0  0
 17 16  1  0  0  0
 17 18  1  0  0  0
 17 66  1  0  0  0
 17 67  1  0  0  0
 18 19  1  0  0  0
 18 68  1  0  0  0
 18 69  1  0  0  0
 19 14  1  0  0  0
 19 20  1  0  0  0
 19 70  1  0  0  0
 20 22  1  0  0  0
 21 20  2  0  0  0
 22 23  1  0  0  0
 23 24  1  0  0  0
 23 71  1  0  0  0
 24 25  1  0  0  0
 24 72  1  0  0  0
 24 73  1  0  0  0
 25 74  1  0  0  0
 25 75  1  0  0  0
 26 25  1  0  0  0
 26 27  2  0  0  0
 27 76  1  0  0  0
 28 26  1  0  0  0
 28 77  1  0  0  0
 29 28  2  0  0  0
 29 30  1  0  0  0
 29 78  1  0  0  0
 30 33  2  0  0  0
 31 30  1  0  0  0
 32 31  1  0  0  0
 32 79  1  0  0  0
 32 80  1  0  0  0
 32 81  1  0  0  0
 33 27  1  0  0  0
 33 34  1  0  0  0
 34 35  1  0  0  0
 35 82  1  0  0  0
 35 83  1  0  0  0
 35 84  1  0  0  0
 36 37  1  0  0  0
 36 23  1  0  0  0
 37 85  1  0  0  0
 38 36  2  0  0  0
 38 86  1  0  0  0
 39 40  2  0  0  0
 39 38  1  0  0  0
 39 87  1  0  0  0
 40 41  1  0  0  0
 40 88  1  0  0  0
 41 42  1  0  0  0
 41 37  2  0  0  0
 43 44  1  0  0  0
 43 42  1  0  0  0
 43 89  1  0  0  0
 43 90  1  0  0  0
 44 46  1  0  0  0
 45 44  2  0  0  0
 46 91  1  0  0  0
M  END
$$$$
