0RU
  CCTOOLS-0919241030

 32 34  0  0  0  0  0  0  0  0999 V2000
   -3.6840   -1.1140   -0.0000 N   0  0  0  0  0
   -4.8530   -1.7320   -0.0000 C   0  0  0  0  0
   -6.0160   -0.9780   -0.0000 C   0  0  0  0  0
   -5.9110    0.4040    0.0000 C   0  0  0  0  0
   -4.7100    0.9590    0.0010 N   0  0  0  0  0
   -3.6170    0.2100    0.0000 C   0  0  0  0  0
   -2.0380    0.9920    0.0010 S   0  0  0  0  0
   -0.9650   -0.4660    0.0000 C   0  0  0  0  0
    0.4770   -0.0290    0.0010 C   0  0  0  0  0
    1.4300   -0.9770    0.0000 N   0  0  0  0  0
    2.7660   -0.6270    0.0010 C   0  0  0  0  0
    3.7750   -1.5800    0.0000 C   0  0  0  0  0
    3.4310   -3.0470   -0.0000 C   0  0  0  0  0
    5.0940   -1.1780   -0.0000 C   0  0  0  0  0
    5.4240    0.1700   -0.0000 C   0  0  0  0  0
    4.4360    1.1310    0.0010 C   0  0  0  0  0
    3.1000    0.7400    0.0000 C   0  0  0  0  0
    1.9970    1.7180    0.0000 C   0  0  0  0  0
    2.2220    2.9160    0.0000 O   0  0  0  0  0
    0.7350    1.2500   -0.0040 N   0  0  0  0  0
   -4.9010   -2.8110   -0.0010 H   0  0  0  0  0
   -6.9840   -1.4570   -0.0010 H   0  0  0  0  0
   -6.7980    1.0200    0.0000 H   0  0  0  0  0
   -1.1640   -1.0630    0.8900 H   0  0  0  0  0
   -1.1640   -1.0630   -0.8900 H   0  0  0  0  0
    1.1780   -1.9130    0.0000 H   0  0  0  0  0
    3.3480   -3.4010   -1.0280 H   0  0  0  0  0
    4.2140   -3.6050    0.5130 H   0  0  0  0  0
    2.4810   -3.1980    0.5130 H   0  0  0  0  0
    5.8790   -1.9200    0.0000 H   0  0  0  0  0
    6.4620    0.4680   -0.0000 H   0  0  0  0  0
    4.6960    2.1800    0.0010 H   0  0  0  0  0
  2  1  2  0  0  0
  2 21  1  0  0  0
  3  2  1  0  0  0
  3 22  1  0  0  0
  4  3  2  0  0  0
  4  5  1  0  0  0
  4 23  1  0  0  0
  5  6  2  0  0  0
  6  1  1  0  0  0
  6  7  1  0  0  0
  7  8  1  0  0  0
  8  9  1  0  0  0
  8 24  1  0  0  0
  8 25  1  0  0  0
  9 10  1  0  0  0
  9 20  2  0  0  0
 10 11  1  0  0  0
 10 26  1  0  0  0
 11 12  2  0  0  0
 11 17  1  0  0  0
 12 14  1  0  0  0
 13 12  1  0  0  0
 13 27  1  0  0  0
 13 28  1  0  0  0
 13 29  1  0  0  0
 14 15  2  0  0  0
 14 30  1  0  0  0
 15 31  1  0  0  0
 16 15  1  0  0  0
 16 32  1  0  0  0
 17 16  2  0  0  0
 18 17  1  0  0  0
 18 19  2  0  0  0
 20 18  1  0  0  0
M  END
$$$$
