0RY
  CCTOOLS-0919241030

 27 27  0  0  0  0  0  0  0  0999 V2000
    2.7770   -0.6160   -1.2040 O   0  0  0  0  0
    3.7500   -0.6910   -0.4810 C   0  0  0  0  0
    4.6960   -1.6210   -0.7190 O   0  0  0  0  0
    3.8990    0.2410    0.6530 C   0  0  0  0  0
    2.8970    1.0750    0.9730 C   0  0  0  0  0
    1.5070    0.7310    0.6140 C   0  0  0  0  0
    1.2250   -0.4090    0.3010 O   0  0  0  0  0
    0.5510    1.6800    0.6340 N   0  0  0  0  0
   -0.7420    1.3800    0.1960 C   0  0  0  0  0
   -1.2810    0.1240    0.4350 C   0  0  0  0  0
   -1.4900    2.3410   -0.4740 C   0  0  0  0  0
   -2.7690    2.0480   -0.9090 C   0  0  0  0  0
   -3.3120    0.8000   -0.6810 C   0  0  0  0  0
   -2.5710   -0.1700   -0.0040 C   0  0  0  0  0
   -3.1530   -1.5070    0.2460 C   0  0  0  0  0
   -2.5060   -2.3500    0.8360 O   0  0  0  0  0
   -4.4000   -1.7890   -0.1790 N   0  0  0  0  0
    4.5560   -2.2060   -1.4760 H   0  0  0  0  0
    4.8150    0.2520    1.2250 H   0  0  0  0  0
    3.1080    1.9970    1.4930 H   0  0  0  0  0
    0.7600    2.5720    0.9520 H   0  0  0  0  0
   -0.7030   -0.6230    0.9590 H   0  0  0  0  0
   -1.0710    3.3200   -0.6550 H   0  0  0  0  0
   -3.3460    2.7990   -1.4280 H   0  0  0  0  0
   -4.3120    0.5760   -1.0220 H   0  0  0  0  0
   -4.9160   -1.1160   -0.6490 H   0  0  0  0  0
   -4.7820   -2.6660   -0.0150 H   0  0  0  0  0
  1  2  2  0  0  0
  2  3  1  0  0  0
  3 18  1  0  0  0
  4  2  1  0  0  0
  4 19  1  0  0  0
  5  4  2  0  0  0
  5 20  1  0  0  0
  6  8  1  0  0  0
  6  5  1  0  0  0
  7  6  2  0  0  0
  8 21  1  0  0  0
  9  8  1  0  0  0
  9 11  2  0  0  0
 10  9  1  0  0  0
 10 22  1  0  0  0
 11 23  1  0  0  0
 12 11  1  0  0  0
 12 24  1  0  0  0
 13 12  2  0  0  0
 13 25  1  0  0  0
 14 10  2  0  0  0
 14 13  1  0  0  0
 15 14  1  0  0  0
 16 15  2  0  0  0
 17 15  1  0  0  0
 17 26  1  0  0  0
 17 27  1  0  0  0
M  END
$$$$
