0RZ
  CCTOOLS-0919241030

 27 27  0  0  0  0  0  0  0  0999 V2000
   -5.3490    0.5720    0.6320 O   0  0  0  0  0
   -4.9090   -0.3870    0.0310 C   0  0  0  0  0
   -5.7410   -1.3610   -0.3870 O   0  0  0  0  0
   -3.4630   -0.4840   -0.2470 C   0  0  0  0  0
   -2.6340    0.4900    0.1650 C   0  0  0  0  0
   -1.1880    0.3940   -0.1130 C   0  0  0  0  0
   -0.7470   -0.5660   -0.7150 O   0  0  0  0  0
   -0.3560    1.3700    0.3000 N   0  0  0  0  0
    1.0250    1.2280    0.1350 C   0  0  0  0  0
    1.6090   -0.0260    0.2250 C   0  0  0  0  0
    1.8130    2.3440   -0.1240 C   0  0  0  0  0
    3.1780    2.2090   -0.2870 C   0  0  0  0  0
    3.7690    0.9650   -0.1950 C   0  0  0  0  0
    2.9870   -0.1620    0.0600 C   0  0  0  0  0
    3.6170   -1.4970    0.1540 C   0  0  0  0  0
    2.9340   -2.4770    0.3760 O   0  0  0  0  0
    4.9490   -1.6260   -0.0060 N   0  0  0  0  0
   -6.6810   -1.2520   -0.1850 H   0  0  0  0  0
   -3.0720   -1.3360   -0.7810 H   0  0  0  0  0
   -3.0260    1.3420    0.6990 H   0  0  0  0  0
   -0.7150    2.1720    0.7120 H   0  0  0  0  0
    0.9980   -0.8950    0.4220 H   0  0  0  0  0
    1.3560    3.3200   -0.1980 H   0  0  0  0  0
    3.7850    3.0790   -0.4890 H   0  0  0  0  0
    4.8370    0.8640   -0.3240 H   0  0  0  0  0
    5.4940   -0.8430   -0.1830 H   0  0  0  0  0
    5.3620   -2.5010    0.0560 H   0  0  0  0  0
  1  2  2  0  0  0
  2  4  1  0  0  0
  3  2  1  0  0  0
  3 18  1  0  0  0
  4  5  2  0  0  0
  4 19  1  0  0  0
  5  6  1  0  0  0
  5 20  1  0  0  0
  6  8  1  0  0  0
  6  7  2  0  0  0
  8  9  1  0  0  0
  8 21  1  0  0  0
  9 10  2  0  0  0
  9 11  1  0  0  0
 10 14  1  0  0  0
 10 22  1  0  0  0
 11 12  2  0  0  0
 11 23  1  0  0  0
 12 13  1  0  0  0
 12 24  1  0  0  0
 13 25  1  0  0  0
 14 15  1  0  0  0
 14 13  2  0  0  0
 15 16  2  0  0  0
 17 15  1  0  0  0
 17 26  1  0  0  0
 17 27  1  0  0  0
M  END
$$$$
