0S0
  CCTOOLS-0919241030

 30 31  0  0  0  0  0  0  0  0999 V2000
    3.4960   -2.3020   -0.0150 O   0  0  0  0  0
    3.9320   -1.1630   -0.0010 C   0  0  0  0  0
    5.2610   -0.9510    0.0140 N   0  0  0  0  0
    5.7680    0.3100    0.0300 C   0  0  0  0  0
    7.1070    0.4890    0.0440 O   0  0  0  0  0
    4.9350    1.4100    0.0310 C   0  0  0  0  0
    3.5580    1.2360    0.0160 C   0  0  0  0  0
    3.0380   -0.0620   -0.0070 C   0  0  0  0  0
    1.6960   -0.2650   -0.0220 N   0  0  0  0  0
    0.8910    0.7430   -0.0150 N   0  0  0  0  0
   -0.4610    0.5380   -0.0310 C   0  0  0  0  0
   -0.9740   -0.7620   -0.0470 C   0  0  0  0  0
   -2.3390   -0.9610   -0.0620 C   0  0  0  0  0
   -3.2000    0.1230   -0.0610 C   0  0  0  0  0
   -4.9420   -0.1410   -0.0790 S   0  0  0  0  0
   -5.1460   -1.4320   -0.6360 O   0  0  0  0  0
   -5.4410   -0.2280    1.4970 N   0  0  0  0  0
   -5.5210    1.0390   -0.6190 O   0  0  0  0  0
   -2.6990    1.4130   -0.0450 C   0  0  0  0  0
   -1.3360    1.6270   -0.0240 C   0  0  0  0  0
    5.8660   -1.7090    0.0140 H   0  0  0  0  0
    5.3530    2.4050    0.0480 H   0  0  0  0  0
    2.8980    2.0900    0.0170 H   0  0  0  0  0
   -0.3040   -1.6090   -0.0480 H   0  0  0  0  0
   -2.7370   -1.9640   -0.0750 H   0  0  0  0  0
   -6.3350    0.0600    1.7400 H   0  0  0  0  0
   -4.8390   -0.5660    2.1790 H   0  0  0  0  0
   -3.3760    2.2540   -0.0440 H   0  0  0  0  0
   -0.9470    2.6340   -0.0070 H   0  0  0  0  0
    7.3790    1.4170    0.0540 H   0  0  0  0  0
  2  1  2  0  0  0
  3  2  1  0  0  0
  3 21  1  0  0  0
  4  3  1  0  0  0
  5  4  1  0  0  0
  5 30  1  0  0  0
  6  7  1  0  0  0
  6  4  2  0  0  0
  6 22  1  0  0  0
  7  8  2  0  0  0
  7 23  1  0  0  0
  8  9  1  0  0  0
  8  2  1  0  0  0
  9 10  2  0  0  0
 11 10  1  0  0  0
 11 20  2  0  0  0
 12 11  1  0  0  0
 12 24  1  0  0  0
 13 12  2  0  0  0
 13 14  1  0  0  0
 13 25  1  0  0  0
 14 19  2  0  0  0
 15 14  1  0  0  0
 15 17  1  0  0  0
 16 15  2  0  0  0
 17 26  1  0  0  0
 17 27  1  0  0  0
 18 15  2  0  0  0
 19 20  1  0  0  0
 19 28  1  0  0  0
 20 29  1  0  0  0
M  END
$$$$
