0T6
  CCTOOLS-0919241030

 40 43  0  0  0  0  0  0  0  0999 V2000
    1.8200    4.5420    0.3570 C   0  0  0  0  0
    1.4730    3.0760    0.3520 C   0  0  0  0  0
    0.2050    2.5420    0.2360 C   0  0  0  0  0
   -1.0160    3.0800    0.1040 N   0  0  0  0  0
   -2.0770    2.3590    0.0120 N   0  0  0  0  0
   -2.0210    1.0120    0.0450 C   0  0  0  0  0
   -0.7720    0.3740    0.1820 C   0  0  0  0  0
    0.3610    1.1670    0.2790 N   0  0  0  0  0
    1.6890    0.9180    0.4160 C   0  0  0  0  0
    2.3360    2.0680    0.4520 N   0  0  0  0  0
    2.3080   -0.4200    0.5050 C   0  0  0  0  0
    2.4790   -1.0320    1.7480 C   0  0  0  0  0
    3.0580   -2.2820    1.8240 C   0  0  0  0  0
    3.4690   -2.9300    0.6720 C   0  0  0  0  0
    3.3020   -2.3300   -0.5630 C   0  0  0  0  0
    2.7190   -1.0810   -0.6550 C   0  0  0  0  0
    2.5110   -0.3290   -2.2060 CL  0  0  0  0  0
   -0.6990   -1.0070    0.2170 C   0  0  0  0  0
   -1.8580   -1.7630    0.1170 C   0  0  0  0  0
   -3.0950   -1.1430   -0.0190 C   0  0  0  0  0
   -3.1860    0.2350   -0.0550 C   0  0  0  0  0
   -4.3970    0.8350   -0.1880 O   0  0  0  0  0
   -5.5380   -0.0200   -0.2840 C   0  0  0  0  0
   -1.7830   -3.1190    0.1520 O   0  0  0  0  0
   -3.0130   -3.8390    0.0450 C   0  0  0  0  0
    1.8020    4.9160    1.3810 H   0  0  0  0  0
    2.8160    4.6820   -0.0630 H   0  0  0  0  0
    1.0930    5.0900   -0.2430 H   0  0  0  0  0
    2.1600   -0.5280    2.6480 H   0  0  0  0  0
    3.1910   -2.7560    2.7850 H   0  0  0  0  0
    3.9220   -3.9080    0.7380 H   0  0  0  0  0
    3.6250   -2.8410   -1.4580 H   0  0  0  0  0
    0.2580   -1.4950    0.3220 H   0  0  0  0  0
   -3.9900   -1.7420   -0.0960 H   0  0  0  0  0
   -5.4350   -0.6670   -1.1560 H   0  0  0  0  0
   -5.6110   -0.6310    0.6150 H   0  0  0  0  0
   -6.4380    0.5860   -0.3860 H   0  0  0  0  0
   -3.6700   -3.5610    0.8680 H   0  0  0  0  0
   -3.4940   -3.5970   -0.9020 H   0  0  0  0  0
   -2.8120   -4.9100    0.0870 H   0  0  0  0  0
  1 26  1  0  0  0
  1 27  1  0  0  0
  1 28  1  0  0  0
  2  1  1  0  0  0
  3  2  2  0  0  0
  4  3  1  0  0  0
  5  4  2  0  0  0
  6  7  1  0  0  0
  6  5  1  0  0  0
  7  8  1  0  0  0
  8  9  1  0  0  0
  8  3  1  0  0  0
  9 10  2  0  0  0
 10  2  1  0  0  0
 11 12  1  0  0  0
 11  9  1  0  0  0
 12 29  1  0  0  0
 13 12  2  0  0  0
 13 30  1  0  0  0
 14 13  1  0  0  0
 14 31  1  0  0  0
 15 14  2  0  0  0
 15 16  1  0  0  0
 15 32  1  0  0  0
 16 11  2  0  0  0
 17 16  1  0  0  0
 18  7  2  0  0  0
 18 33  1  0  0  0
 19 18  1  0  0  0
 20 19  2  0  0  0
 20 21  1  0  0  0
 20 34  1  0  0  0
 21  6  2  0  0  0
 22 21  1  0  0  0
 23 22  1  0  0  0
 23 35  1  0  0  0
 23 36  1  0  0  0
 23 37  1  0  0  0
 24 19  1  0  0  0
 25 24  1  0  0  0
 25 38  1  0  0  0
 25 39  1  0  0  0
 25 40  1  0  0  0
M  END
$$$$
