0T7
  CCTOOLS-0919241030

 54 58  0  0  0  0  0  0  0  0999 V2000
   -3.4000    4.6880   -0.6490 C   0  0  0  0  0
   -3.9020    3.2540   -0.8350 C   0  0  0  0  0
   -4.2190    2.6430    0.5310 C   0  0  0  0  0
   -4.7140    1.2320    0.3470 C   0  0  0  0  0
   -5.9720    0.8690    0.3120 N   0  0  0  0  0
   -6.0590   -0.4510    0.1350 C   0  0  0  0  0
   -4.7740   -0.9430    0.0560 C   0  0  0  0  0
   -3.9340    0.1500    0.1890 N   0  0  0  0  0
   -2.5610   -0.0560    0.1410 C   0  0  0  0  0
   -1.6770    1.0040    0.2710 C   0  0  0  0  0
   -0.3160    0.7790    0.2200 C   0  0  0  0  0
    0.1770   -0.5090    0.0380 C   0  0  0  0  0
   -0.6910   -1.5760   -0.0940 C   0  0  0  0  0
   -2.0710   -1.3610   -0.0430 C   0  0  0  0  0
   -2.9330   -2.4050   -0.1710 N   0  0  0  0  0
   -4.2260   -2.2300   -0.1220 C   0  0  0  0  0
   -5.1440   -3.4150   -0.2710 C   0  0  0  0  0
    1.5190   -0.7180   -0.0110 O   0  0  0  0  0
    2.3600    0.4280    0.1320 C   0  0  0  0  0
    3.8040    0.0050    0.0520 C   0  0  0  0  0
    4.1060   -1.3410   -0.1410 C   0  0  0  0  0
    5.4100   -1.7420   -0.2210 C   0  0  0  0  0
    6.4140   -0.7640   -0.1040 C   0  0  0  0  0
    7.7760   -1.1000   -0.1770 C   0  0  0  0  0
    8.7170   -0.1250   -0.0590 C   0  0  0  0  0
    8.3490    1.2060    0.1330 C   0  0  0  0  0
    7.0390    1.5670    0.2080 C   0  0  0  0  0
    6.0370    0.5880    0.0910 C   0  0  0  0  0
    4.7420    0.9140    0.1610 N   0  0  0  0  0
   -7.3290   -1.2560    0.0410 C   0  0  0  0  0
   -3.1740    5.1230   -1.6220 H   0  0  0  0  0
   -4.1690    5.2810   -0.1550 H   0  0  0  0  0
   -2.4980    4.6800   -0.0370 H   0  0  0  0  0
   -4.8040    3.2620   -1.4470 H   0  0  0  0  0
   -3.1330    2.6610   -1.3300 H   0  0  0  0  0
   -3.3170    2.6350    1.1430 H   0  0  0  0  0
   -4.9880    3.2360    1.0250 H   0  0  0  0  0
   -2.0530    2.0060    0.4120 H   0  0  0  0  0
    0.3690    1.6070    0.3220 H   0  0  0  0  0
   -0.3030   -2.5740   -0.2360 H   0  0  0  0  0
   -5.7360   -3.3050   -1.1810 H   0  0  0  0  0
   -4.5520   -4.3280   -0.3320 H   0  0  0  0  0
   -5.8100   -3.4710    0.5900 H   0  0  0  0  0
    2.1450    1.1380   -0.6670 H   0  0  0  0  0
    2.1720    0.8990    1.0970 H   0  0  0  0  0
    3.3110   -2.0670   -0.2270 H   0  0  0  0  0
    5.6620   -2.7820   -0.3710 H   0  0  0  0  0
    8.0740   -2.1280   -0.3250 H   0  0  0  0  0
    9.7640   -0.3850   -0.1150 H   0  0  0  0  0
    9.1150    1.9610    0.2240 H   0  0  0  0  0
    6.7710    2.6030    0.3580 H   0  0  0  0  0
   -7.5880   -1.4040   -1.0070 H   0  0  0  0  0
   -7.1810   -2.2250    0.5180 H   0  0  0  0  0
   -8.1360   -0.7230    0.5430 H   0  0  0  0  0
  1 31  1  0  0  0
  1 32  1  0  0  0
  1 33  1  0  0  0
  2  3  1  0  0  0
  2  1  1  0  0  0
  2 34  1  0  0  0
  2 35  1  0  0  0
  3  4  1  0  0  0
  3 36  1  0  0  0
  3 37  1  0  0  0
  4  5  2  0  0  0
  5  6  1  0  0  0
  6 30  1  0  0  0
  7 16  1  0  0  0
  7  6  2  0  0  0
  8  4  1  0  0  0
  8  7  1  0  0  0
  9 14  1  0  0  0
  9  8  1  0  0  0
 10  9  2  0  0  0
 10 38  1  0  0  0
 11 12  2  0  0  0
 11 10  1  0  0  0
 11 39  1  0  0  0
 12 13  1  0  0  0
 13 14  2  0  0  0
 13 40  1  0  0  0
 14 15  1  0  0  0
 15 16  2  0  0  0
 16 17  1  0  0  0
 17 41  1  0  0  0
 17 42  1  0  0  0
 17 43  1  0  0  0
 18 19  1  0  0  0
 18 12  1  0  0  0
 19 44  1  0  0  0
 19 45  1  0  0  0
 20 29  1  0  0  0
 20 19  1  0  0  0
 21 20  2  0  0  0
 21 46  1  0  0  0
 22 23  2  0  0  0
 22 21  1  0  0  0
 22 47  1  0  0  0
 23 28  1  0  0  0
 24 25  2  0  0  0
 24 23  1  0  0  0
 24 48  1  0  0  0
 25 26  1  0  0  0
 25 49  1  0  0  0
 26 27  2  0  0  0
 26 50  1  0  0  0
 27 51  1  0  0  0
 28 27  1  0  0  0
 28 29  2  0  0  0
 30 52  1  0  0  0
 30 53  1  0  0  0
 30 54  1  0  0  0
M  END
$$$$
