0Z9
  CCTOOLS-0919241031

 50 50  0  0  1  0  0  0  0  0999 V2000
   -2.8050    0.1900    0.0670 O   0  0  0  0  0
   -1.5490   -1.1670    1.2940 O   0  0  0  0  0
   -3.9770   -0.3430    0.7370 C   0  0  0  0  0
   -5.2140    0.3300    0.1980 C   0  0  0  0  0
   -7.4810    1.5640   -0.7900 C   0  0  0  0  0
   -6.8160    2.1060    0.2930 C   0  0  0  0  0
   -5.6820    1.4890    0.7880 C   0  0  0  0  0
   -5.8760   -0.2090   -0.8890 C   0  0  0  0  0
   -7.0090    0.4080   -1.3830 C   0  0  0  0  0
   -1.6100   -0.3100    0.4360 C   0  0  0  0  0
   -0.4820    0.1420   -0.1470 N   0  0  0  0  0
    0.8180   -0.4010    0.2540 C   0  0  0  0  0
    1.8960    0.6110   -0.0340 C   0  0  0  0  0
    1.6070    1.6810   -0.5260 O   0  0  0  0  0
    1.0990   -1.6840   -0.5320 C   0  0  0  0  0
    0.0760   -2.7540   -0.1460 C   0  0  0  0  0
    0.2790   -3.9930   -1.0200 C   0  0  0  0  0
    0.2640   -3.1310    1.3250 C   0  0  0  0  0
    3.1820    0.3270    0.2550 N   0  0  0  0  0
    4.2300    1.3120   -0.0250 C   0  0  0  0  0
    4.3360    2.2910    1.1460 C   0  0  0  0  0
    5.5480    0.6040   -0.2090 C   0  0  0  0  0
    5.6050   -0.6040   -0.1150 O   0  0  0  0  0
    6.6620    1.3130   -0.4770 N   0  0  0  0  0
    7.9000    0.6480   -0.6500 O   0  0  0  0  0
   -4.0410   -1.4160    0.5590 H   0  0  0  0  0
   -3.9000   -0.1560    1.8090 H   0  0  0  0  0
   -8.3670    2.0460   -1.1760 H   0  0  0  0  0
   -7.1850    3.0100    0.7570 H   0  0  0  0  0
   -5.1630    1.9130    1.6350 H   0  0  0  0  0
   -5.5070   -1.1120   -1.3520 H   0  0  0  0  0
   -7.5290   -0.0160   -2.2300 H   0  0  0  0  0
   -0.5310    0.8270   -0.8330 H   0  0  0  0  0
    0.8050   -0.6250    1.3210 H   0  0  0  0  0
    1.0250   -1.4790   -1.6000 H   0  0  0  0  0
    2.1030   -2.0390   -0.3000 H   0  0  0  0  0
   -0.9310   -2.3650   -0.2950 H   0  0  0  0  0
    1.2860   -4.3820   -0.8710 H   0  0  0  0  0
   -0.4500   -4.7550   -0.7440 H   0  0  0  0  0
    0.1450   -3.7240   -2.0680 H   0  0  0  0  0
    1.2710   -3.5200    1.4750 H   0  0  0  0  0
    0.1200   -2.2490    1.9480 H   0  0  0  0  0
   -0.4640   -3.8940    1.6010 H   0  0  0  0  0
    3.4130   -0.5290    0.6490 H   0  0  0  0  0
    3.9810    1.8590   -0.9340 H   0  0  0  0  0
    5.1160    3.0230    0.9380 H   0  0  0  0  0
    3.3830    2.8030    1.2790 H   0  0  0  0  0
    4.5840    1.7440    2.0560 H   0  0  0  0  0
    6.6150    2.2790   -0.5520 H   0  0  0  0  0
    8.6410    1.2400   -0.8390 H   0  0  0  0  0
  1  3  1  0  0  0
  3  4  1  0  0  0
  3 26  1  0  0  0
  3 27  1  0  0  0
  4  8  1  0  0  0
  5  6  2  0  0  0
  5  9  1  0  0  0
  5 28  1  0  0  0
  6  7  1  0  0  0
  6 29  1  0  0  0
  7  4  2  0  0  0
  7 30  1  0  0  0
  8  9  2  0  0  0
  8 31  1  0  0  0
  9 32  1  0  0  0
 10  1  1  0  0  0
 10  2  2  0  0  0
 11 12  1  0  0  0
 11 33  1  0  0  0
 11 10  1  0  0  0
 12 13  1  0  0  0
 12 15  1  0  0  0
 12 34  1  0  0  0
 13 14  2  0  0  0
 13 19  1  0  0  0
 15 16  1  0  0  0
 15 35  1  0  0  0
 15 36  1  0  0  0
 16 17  1  0  0  0
 16 18  1  0  0  0
 16 37  1  0  0  0
 17 38  1  0  0  0
 17 39  1  0  0  0
 17 40  1  0  0  0
 18 41  1  0  0  0
 18 42  1  0  0  0
 18 43  1  0  0  0
 19 20  1  0  0  0
 19 44  1  0  0  0
 20 21  1  0  0  0
 20 22  1  0  0  0
 20 45  1  0  0  0
 21 46  1  0  0  0
 21 47  1  0  0  0
 21 48  1  0  0  0
 22 23  2  0  0  0
 22 24  1  0  0  0
 24 25  1  0  0  0
 24 49  1  0  0  0
 25 50  1  0  0  0
M  END
$$$$
