10R
  CCTOOLS-0919241031

 73 91  0  0  1  0  0  0  0  0999 V2000
   -4.2790   -4.4690   -1.3850 B   0  0  0  0  0
   -2.3780   -2.9530   -0.0890 C   0  0  0  0  0
    0.7480    2.5920    2.3970 O   0  0  0  0  0
   -3.0320   -4.1030   -2.5080 B   0  0  0  0  0
   -2.0560   -1.7040    0.7860 C   0  0  0  0  0
   -4.8140   -6.1500   -4.2510 O   0  0  0  0  0
   -1.5810   -4.8270   -1.9440 B   0  0  0  0  0
   -1.5080   -0.4340    0.0760 C   0  0  0  0  0
   -5.9250   -3.8780   -5.5420 O   0  0  0  0  0
   -1.9300   -5.6420   -0.4760 B   0  0  0  0  0
   -1.2270    0.6880    1.1180 C   0  0  0  0  0
   -8.5680   -4.5310   -8.9560 O   0  0  0  0  0
   -3.5990   -5.4240   -0.1310 B   0  0  0  0  0
   -0.6870    2.0170    0.5140 C   0  0  0  0  0
   -3.5120   -2.8970   -1.3310 B   0  0  0  0  0
    0.3100    4.3870    0.8170 C   0  0  0  0  0
   -1.8460   -3.1190   -1.6800 B   0  0  0  0  0
   -1.5080    3.5100    2.4540 C   0  0  0  0  0
   -1.1640   -4.0690   -0.4240 B   0  0  0  0  0
   -1.3020    4.5350    3.5940 C   0  0  0  0  0
   -2.4120   -4.4400    0.6970 B   0  0  0  0  0
   -0.2760    3.1300    1.5530 C   0  0  0  0  0
   -3.8620   -3.7160    0.1360 B   0  0  0  0  0
    1.5840    4.1560   -0.0370 C   0  0  0  0  0
   -3.0650   -5.5910   -1.7180 C   0  0  0  0  0
   -3.3310   -6.9260   -2.4830 C   0  0  0  0  0
   -4.7100   -7.0850   -3.1610 C   0  0  0  0  0
   -6.0410   -6.2310   -4.9970 C   0  0  0  0  0
   -6.0370   -5.1740   -6.1300 C   0  0  0  0  0
   -7.3200   -5.2800   -7.0050 C   0  0  0  0  0
   -7.3730   -4.3130   -8.2120 C   0  0  0  0  0
    1.8940    5.1050   -0.4980 H   0  0  0  0  0
    2.3930    3.7790    0.6060 H   0  0  0  0  0
    1.3690    3.4190   -0.8250 H   0  0  0  0  0
   -4.6970   -3.3100    0.8970 H   0  0  0  0  0
   -5.1670   -5.3660   -6.7750 H   0  0  0  0  0
   -2.9860   -1.4160    1.2990 H   0  0  0  0  0
   -2.5640   -7.0180   -3.2660 H   0  0  0  0  0
   -1.3070   -2.0110    1.5300 H   0  0  0  0  0
   -3.2190   -7.7490   -1.7620 H   0  0  0  0  0
   -0.5740   -0.6850   -0.4470 H   0  0  0  0  0
   -5.5050   -6.8850   -2.4280 H   0  0  0  0  0
   -2.2510   -0.0760   -0.6520 H   0  0  0  0  0
   -4.8150   -8.1100   -3.5450 H   0  0  0  0  0
   -2.1670    0.9090    1.6460 H   0  0  0  0  0
   -6.1360   -7.2350   -5.4350 H   0  0  0  0  0
   -0.4830    0.3110    1.8350 H   0  0  0  0  0
   -6.8910   -6.0420   -4.3240 H   0  0  0  0  0
    0.2000    1.7760   -0.0900 H   0  0  0  0  0
   -1.4710    2.4350   -0.1350 H   0  0  0  0  0
   -0.4720    4.7800    0.1510 H   0  0  0  0  0
   -7.3860   -6.3090   -7.3890 H   0  0  0  0  0
    0.5520    5.1400    1.5820 H   0  0  0  0  0
   -8.1890   -5.0720   -6.3630 H   0  0  0  0  0
   -1.8720    2.5800    2.9160 H   0  0  0  0  0
   -6.5020   -4.4910   -8.8600 H   0  0  0  0  0
   -2.2840    3.9170    1.7880 H   0  0  0  0  0
   -7.3540   -3.2750   -7.8490 H   0  0  0  0  0
   -2.2530    4.6900    4.1250 H   0  0  0  0  0
   -0.5470    4.1540    4.2980 H   0  0  0  0  0
   -0.9590    5.4900    3.1700 H   0  0  0  0  0
   -5.4200   -4.6000   -1.7280 H   0  0  0  0  0
   -3.2550   -3.9730   -3.6800 H   0  0  0  0  0
   -0.7460   -5.2350   -2.7030 H   0  0  0  0  0
   -1.3530   -6.6470   -0.1610 H   0  0  0  0  0
   -4.2400   -6.2650    0.4380 H   0  0  0  0  0
   -4.0900   -1.8940   -1.6430 H   0  0  0  0  0
   -1.2080   -2.2850   -2.2590 H   0  0  0  0  0
   -0.0240   -3.9230   -0.0770 H   0  0  0  0  0
   -2.1860   -4.5640    1.8680 H   0  0  0  0  0
    1.0120    3.2470    3.0330 H   0  0  0  0  0
   -5.9210   -3.2190   -6.2260 H   0  0  0  0  0
   -8.5950   -3.9350   -9.6950 H   0  0  0  0  0
  1  4  1  0  0  0
  1 13  1  0  0  0
  1 15  1  0  0  0
  1 23  1  0  0  0
  1 25  1  0  0  0
  1 62  1  0  0  0
  2  5  1  0  0  0
  2 15  1  0  0  0
  2 17  1  0  0  0
  2 19  1  0  0  0
  2 21  1  0  0  0
  2 23  1  0  0  0
  3 22  1  0  0  0
  3 71  1  0  0  0
  4  7  1  0  0  0
  4 15  1  0  0  0
  4 17  1  0  0  0
  4 25  1  0  0  0
  4 63  1  0  0  0
  5  8  1  0  0  0
  5 37  1  0  0  0
  5 39  1  0  0  0
  6 27  1  0  0  0
  6 28  1  0  0  0
  7 10  1  0  0  0
  7 17  1  0  0  0
  7 19  1  0  0  0
  7 25  1  0  0  0
  7 64  1  0  0  0
  8 11  1  0  0  0
  8 41  1  0  0  0
  8 43  1  0  0  0
  9 29  1  0  0  0
  9 72  1  0  0  0
 10 13  1  0  0  0
 10 19  1  0  0  0
 10 21  1  0  0  0
 10 25  1  0  0  0
 10 65  1  0  0  0
 11 14  1  0  0  0
 11 45  1  0  0  0
 11 47  1  0  0  0
 12 31  1  0  0  0
 12 73  1  0  0  0
 13 21  1  0  0  0
 13 23  1  0  0  0
 13 25  1  0  0  0
 13 66  1  0  0  0
 14 22  1  0  0  0
 14 49  1  0  0  0
 14 50  1  0  0  0
 15 17  1  0  0  0
 15 23  1  0  0  0
 15 67  1  0  0  0
 16 22  1  0  0  0
 16 24  1  0  0  0
 16 51  1  0  0  0
 16 53  1  0  0  0
 17 19  1  0  0  0
 17 68  1  0  0  0
 18 20  1  0  0  0
 18 22  1  0  0  0
 18 55  1  0  0  0
 18 57  1  0  0  0
 19 21  1  0  0  0
 19 69  1  0  0  0
 20 59  1  0  0  0
 20 60  1  0  0  0
 20 61  1  0  0  0
 21 23  1  0  0  0
 21 70  1  0  0  0
 23 35  1  0  0  0
 24 32  1  0  0  0
 24 33  1  0  0  0
 24 34  1  0  0  0
 25 26  1  0  0  0
 26 27  1  0  0  0
 26 38  1  0  0  0
 26 40  1  0  0  0
 27 42  1  0  0  0
 27 44  1  0  0  0
 28 29  1  0  0  0
 28 46  1  0  0  0
 28 48  1  0  0  0
 29 30  1  0  0  0
 29 36  1  0  0  0
 30 31  1  0  0  0
 30 52  1  0  0  0
 30 54  1  0  0  0
 31 56  1  0  0  0
 31 58  1  0  0  0
M  END
$$$$
