10S
  CCTOOLS-0919241031

 73 91  0  0  1  0  0  0  0  0999 V2000
   -4.2790   -4.4670   -1.3820 B   0  0  0  0  0
   -2.3760   -2.9520   -0.0880 C   0  0  0  0  0
    0.7480    2.5920    2.3980 O   0  0  0  0  0
   -3.0330   -4.1020   -2.5060 B   0  0  0  0  0
   -2.0550   -1.7030    0.7870 C   0  0  0  0  0
   -4.8200   -6.1480   -4.2430 O   0  0  0  0  0
   -1.5820   -4.8260   -1.9430 B   0  0  0  0  0
   -1.5070   -0.4330    0.0770 C   0  0  0  0  0
   -4.8410   -5.4850   -6.9690 O   0  0  0  0  0
   -1.9310   -5.6410   -0.4750 B   0  0  0  0  0
   -1.2270    0.6880    1.1180 C   0  0  0  0  0
   -8.6030   -4.4790   -8.9120 O   0  0  0  0  0
   -3.5990   -5.4230   -0.1290 B   0  0  0  0  0
   -0.6870    2.0170    0.5140 C   0  0  0  0  0
   -3.5110   -2.8960   -1.3290 B   0  0  0  0  0
    0.3100    4.3880    0.8170 C   0  0  0  0  0
   -1.8450   -3.1180   -1.6780 B   0  0  0  0  0
   -1.5070    3.5100    2.4540 C   0  0  0  0  0
   -1.1640   -4.0690   -0.4230 B   0  0  0  0  0
   -1.3020    4.5350    3.5930 C   0  0  0  0  0
   -2.4120   -4.4400    0.6980 B   0  0  0  0  0
   -0.2760    3.1300    1.5530 C   0  0  0  0  0
   -3.8610   -3.7150    0.1380 B   0  0  0  0  0
    1.5830    4.1560   -0.0370 C   0  0  0  0  0
   -3.0660   -5.5900   -1.7160 C   0  0  0  0  0
   -3.3350   -6.9240   -2.4810 C   0  0  0  0  0
   -4.7160   -7.0830   -3.1540 C   0  0  0  0  0
   -6.0400   -6.2350   -4.9990 C   0  0  0  0  0
   -6.0010   -5.2270   -6.1770 C   0  0  0  0  0
   -7.2910   -5.3230   -7.0420 C   0  0  0  0  0
   -7.3730   -4.3130   -8.2120 C   0  0  0  0  0
    1.8940    5.1050   -0.4980 H   0  0  0  0  0
    2.3920    3.7790    0.6060 H   0  0  0  0  0
    1.3670    3.4190   -0.8250 H   0  0  0  0  0
   -4.6960   -3.3080    0.9000 H   0  0  0  0  0
   -5.9460   -4.2120   -5.7570 H   0  0  0  0  0
   -2.9850   -1.4150    1.2990 H   0  0  0  0  0
   -2.5710   -7.0150   -3.2670 H   0  0  0  0  0
   -1.3060   -2.0100    1.5320 H   0  0  0  0  0
   -3.2200   -7.7480   -1.7610 H   0  0  0  0  0
   -0.5720   -0.6840   -0.4460 H   0  0  0  0  0
   -5.5090   -6.8820   -2.4190 H   0  0  0  0  0
   -2.2500   -0.0750   -0.6510 H   0  0  0  0  0
   -4.8230   -8.1080   -3.5370 H   0  0  0  0  0
   -2.1670    0.9080    1.6450 H   0  0  0  0  0
   -6.1520   -7.2550   -5.3950 H   0  0  0  0  0
   -0.4840    0.3110    1.8360 H   0  0  0  0  0
   -6.8920   -5.9990   -4.3450 H   0  0  0  0  0
    0.2000    1.7760   -0.0900 H   0  0  0  0  0
   -1.4710    2.4350   -0.1350 H   0  0  0  0  0
   -0.4730    4.7810    0.1510 H   0  0  0  0  0
   -7.3440   -6.3380   -7.4630 H   0  0  0  0  0
    0.5530    5.1400    1.5820 H   0  0  0  0  0
   -8.1560   -5.1530   -6.3840 H   0  0  0  0  0
   -1.8700    2.5800    2.9160 H   0  0  0  0  0
   -6.5340   -4.4860   -8.9030 H   0  0  0  0  0
   -2.2830    3.9160    1.7880 H   0  0  0  0  0
   -7.3150   -3.2890   -7.8140 H   0  0  0  0  0
   -2.2530    4.6890    4.1240 H   0  0  0  0  0
   -0.5470    4.1550    4.2970 H   0  0  0  0  0
   -0.9600    5.4910    3.1690 H   0  0  0  0  0
   -5.4210   -4.5980   -1.7250 H   0  0  0  0  0
   -3.2560   -3.9730   -3.6780 H   0  0  0  0  0
   -0.7480   -5.2350   -2.7020 H   0  0  0  0  0
   -1.3540   -6.6470   -0.1610 H   0  0  0  0  0
   -4.2400   -6.2640    0.4400 H   0  0  0  0  0
   -4.0890   -1.8920   -1.6410 H   0  0  0  0  0
   -1.2070   -2.2850   -2.2570 H   0  0  0  0  0
   -0.0230   -3.9230   -0.0760 H   0  0  0  0  0
   -2.1850   -4.5630    1.8700 H   0  0  0  0  0
    1.0120    3.2470    3.0330 H   0  0  0  0  0
   -4.8090   -4.8720   -7.6940 H   0  0  0  0  0
   -8.6470   -3.8560   -9.6280 H   0  0  0  0  0
  1  4  1  0  0  0
  1 13  1  0  0  0
  1 15  1  0  0  0
  1 23  1  0  0  0
  1 25  1  0  0  0
  1 62  1  0  0  0
  2  5  1  0  0  0
  2 15  1  0  0  0
  2 17  1  0  0  0
  2 19  1  0  0  0
  2 21  1  0  0  0
  2 23  1  0  0  0
  3 22  1  0  0  0
  3 71  1  0  0  0
  4  7  1  0  0  0
  4 15  1  0  0  0
  4 17  1  0  0  0
  4 25  1  0  0  0
  4 63  1  0  0  0
  5  8  1  0  0  0
  5 37  1  0  0  0
  5 39  1  0  0  0
  6 27  1  0  0  0
  6 28  1  0  0  0
  7 10  1  0  0  0
  7 17  1  0  0  0
  7 19  1  0  0  0
  7 25  1  0  0  0
  7 64  1  0  0  0
  8 11  1  0  0  0
  8 41  1  0  0  0
  8 43  1  0  0  0
  9 29  1  0  0  0
  9 72  1  0  0  0
 10 13  1  0  0  0
 10 19  1  0  0  0
 10 21  1  0  0  0
 10 25  1  0  0  0
 10 65  1  0  0  0
 11 14  1  0  0  0
 11 45  1  0  0  0
 11 47  1  0  0  0
 12 31  1  0  0  0
 12 73  1  0  0  0
 13 21  1  0  0  0
 13 23  1  0  0  0
 13 25  1  0  0  0
 13 66  1  0  0  0
 14 22  1  0  0  0
 14 49  1  0  0  0
 14 50  1  0  0  0
 15 17  1  0  0  0
 15 23  1  0  0  0
 15 67  1  0  0  0
 16 22  1  0  0  0
 16 24  1  0  0  0
 16 51  1  0  0  0
 16 53  1  0  0  0
 17 19  1  0  0  0
 17 68  1  0  0  0
 18 20  1  0  0  0
 18 22  1  0  0  0
 18 55  1  0  0  0
 18 57  1  0  0  0
 19 21  1  0  0  0
 19 69  1  0  0  0
 20 59  1  0  0  0
 20 60  1  0  0  0
 20 61  1  0  0  0
 21 23  1  0  0  0
 21 70  1  0  0  0
 23 35  1  0  0  0
 24 32  1  0  0  0
 24 33  1  0  0  0
 24 34  1  0  0  0
 25 26  1  0  0  0
 26 27  1  0  0  0
 26 38  1  0  0  0
 26 40  1  0  0  0
 27 42  1  0  0  0
 27 44  1  0  0  0
 28 29  1  0  0  0
 28 46  1  0  0  0
 28 48  1  0  0  0
 29 30  1  0  0  0
 29 36  1  0  0  0
 30 31  1  0  0  0
 30 52  1  0  0  0
 30 54  1  0  0  0
 31 56  1  0  0  0
 31 58  1  0  0  0
M  END
$$$$
