11O
  CCTOOLS-0919241032

 54 54  0  0  1  0  0  0  0  0999 V2000
    1.4760   -0.3030   -8.4700 C   0  0  0  0  0
    1.7100    0.0690   -7.0290 C   0  0  0  0  0
    0.3860    0.0140   -6.2650 C   0  0  0  0  0
    0.6240    0.3930   -4.8020 C   0  0  0  0  0
   -0.7000    0.3380   -4.0390 C   0  0  0  0  0
   -0.4610    0.7160   -2.5750 C   0  0  0  0  0
   -1.7860    0.6610   -1.8120 C   0  0  0  0  0
   -1.5480    1.0400   -0.3490 C   0  0  0  0  0
   -2.8530    0.9850    0.4020 C   0  0  0  0  0
   -2.9460    0.2800    1.5020 C   0  0  0  0  0
   -1.7120   -0.3410    2.1050 C   0  0  0  0  0
   -1.6040    0.0650    3.5760 C   0  0  0  0  0
   -0.4460   -0.5120    4.3930 C   0  0  0  0  0
    0.1610    0.3650    5.4880 C   0  0  0  0  0
    1.2720   -0.4050    6.2030 C   0  0  0  0  0
    1.8810    0.4720    7.2970 C   0  0  0  0  0
    2.9920   -0.2990    8.0120 C   0  0  0  0  0
    3.6010    0.5790    9.1060 C   0  0  0  0  0
    0.3630   -0.5840   -8.8470 O   0  0  0  0  0
    2.5030   -0.3230   -9.3340 O   0  0  0  0  0
   -1.8010   -1.7640    2.0100 O   0  0  0  0  0
   -1.7960   -0.9510    4.5650 O   0  0  0  0  0
    2.1180    1.0790   -6.9760 H   0  0  0  0  0
    2.4160   -0.6300   -6.5820 H   0  0  0  0  0
   -0.0210   -0.9950   -6.3170 H   0  0  0  0  0
   -0.3200    0.7140   -6.7110 H   0  0  0  0  0
    1.0320    1.4030   -4.7500 H   0  0  0  0  0
    1.3300   -0.3060   -4.3560 H   0  0  0  0  0
   -1.1070   -0.6710   -4.0910 H   0  0  0  0  0
   -1.4060    1.0380   -4.4850 H   0  0  0  0  0
   -0.0540    1.7260   -2.5230 H   0  0  0  0  0
    0.2440    0.0160   -2.1290 H   0  0  0  0  0
   -2.1940   -0.3480   -1.8640 H   0  0  0  0  0
   -2.4920    1.3610   -2.2580 H   0  0  0  0  0
   -1.1400    2.0500   -0.2970 H   0  0  0  0  0
   -0.8420    0.3400    0.0960 H   0  0  0  0  0
   -3.7110    1.5280    0.0340 H   0  0  0  0  0
   -3.9060    0.1440    1.9770 H   0  0  0  0  0
   -0.8300    0.0040    1.5660 H   0  0  0  0  0
   -1.9390    1.0740    3.8140 H   0  0  0  0  0
    0.2450   -1.1860    3.8880 H   0  0  0  0  0
   -0.6110    0.6390    6.2060 H   0  0  0  0  0
    0.5760    1.2680    5.0400 H   0  0  0  0  0
    2.0450   -0.6790    5.4840 H   0  0  0  0  0
    0.8570   -1.3080    6.6500 H   0  0  0  0  0
    1.1080    0.7450    8.0160 H   0  0  0  0  0
    2.2960    1.3750    6.8490 H   0  0  0  0  0
    3.7650   -0.5720    7.2930 H   0  0  0  0  0
    2.5770   -1.2020    8.4600 H   0  0  0  0  0
    4.3920    0.0290    9.6160 H   0  0  0  0  0
    4.0160    1.4820    8.6590 H   0  0  0  0  0
    2.8280    0.8520    9.8250 H   0  0  0  0  0
    2.3520   -0.5620  -10.2580 H   0  0  0  0  0
   -2.5920   -2.0280    2.4980 H   0  0  0  0  0
  1  2  1  0  0  0
  1 19  2  0  0  0
  1 20  1  0  0  0
  2  3  1  0  0  0
  2 23  1  0  0  0
  2 24  1  0  0  0
  3  4  1  0  0  0
  3 25  1  0  0  0
  3 26  1  0  0  0
  4  5  1  0  0  0
  4 27  1  0  0  0
  4 28  1  0  0  0
  5  6  1  0  0  0
  5 29  1  0  0  0
  5 30  1  0  0  0
  6  7  1  0  0  0
  6 31  1  0  0  0
  6 32  1  0  0  0
  7  8  1  0  0  0
  7 33  1  0  0  0
  7 34  1  0  0  0
  8  9  1  0  0  0
  8 35  1  0  0  0
  8 36  1  0  0  0
  9 10  2  0  0  0
  9 37  1  0  0  0
 10 11  1  0  0  0
 10 38  1  0  0  0
 11 12  1  0  0  0
 11 21  1  0  0  0
 11 39  1  0  0  0
 12 13  1  0  0  0
 12 22  1  0  0  0
 12 40  1  0  0  0
 13 14  1  0  0  0
 13 22  1  0  0  0
 13 41  1  0  0  0
 14 15  1  0  0  0
 14 42  1  0  0  0
 14 43  1  0  0  0
 15 16  1  0  0  0
 15 44  1  0  0  0
 15 45  1  0  0  0
 16 17  1  0  0  0
 16 46  1  0  0  0
 16 47  1  0  0  0
 17 18  1  0  0  0
 17 48  1  0  0  0
 17 49  1  0  0  0
 18 50  1  0  0  0
 18 51  1  0  0  0
 18 52  1  0  0  0
 20 53  1  0  0  0
 21 54  1  0  0  0
M  END
$$$$
