12I
  CCTOOLS-0919241032

 33 35  0  0  0  0  0  0  0  0999 V2000
    2.7820   -1.7360   -0.2250 N   0  0  0  0  0
    1.6740   -2.4380   -0.2530 C   0  0  0  0  0
    2.7410   -0.4060   -0.0620 C   0  0  0  0  0
   -0.9360   -0.0340    0.1740 N   0  0  0  0  0
    1.4800    0.2240    0.0800 C   0  0  0  0  0
   -3.7580    0.0790   -0.1840 N   0  0  0  0  0
    1.4130    1.6110    0.2510 C   0  0  0  0  0
    2.5650    2.3410    0.2790 C   0  0  0  0  0
    3.8060    1.7240    0.1400 C   0  0  0  0  0
    0.3200   -0.5870    0.0420 C   0  0  0  0  0
   -1.8250   -0.9210    0.9370 C   0  0  0  0  0
   -3.1810   -0.2370    1.1300 C   0  0  0  0  0
   -2.8690    0.9670   -0.9460 C   0  0  0  0  0
    3.9050    0.3750   -0.0280 C   0  0  0  0  0
   -1.5130    0.2830   -1.1390 C   0  0  0  0  0
    0.4740   -1.8940   -0.1250 N   0  0  0  0  0
   -5.0960    0.6690   -0.0420 C   0  0  0  0  0
    1.7430   -3.5070   -0.3860 H   0  0  0  0  0
    4.8740   -0.0900   -0.1340 H   0  0  0  0  0
   -1.9630   -1.8540    0.3910 H   0  0  0  0  0
   -1.3820   -1.1310    1.9110 H   0  0  0  0  0
   -0.8430    0.9510   -1.6800 H   0  0  0  0  0
   -1.6470   -0.6360   -1.7090 H   0  0  0  0  0
    0.4570    2.1000    0.3590 H   0  0  0  0  0
   -3.0460    0.6820    1.7000 H   0  0  0  0  0
   -3.8510   -0.9050    1.6700 H   0  0  0  0  0
   -3.3120    1.1770   -1.9200 H   0  0  0  0  0
   -2.7310    1.9000   -0.4000 H   0  0  0  0  0
   -5.0280    1.5880    0.5400 H   0  0  0  0  0
   -5.5000    0.8940   -1.0290 H   0  0  0  0  0
   -5.7520   -0.0360    0.4670 H   0  0  0  0  0
    2.5150    3.4110    0.4110 H   0  0  0  0  0
    4.7030    2.3240    0.1660 H   0  0  0  0  0
  1  2  1  0  0  0
  1  3  2  0  0  0
  2 16  2  0  0  0
  2 18  1  0  0  0
  3  5  1  0  0  0
  3 14  1  0  0  0
  4 10  1  0  0  0
  4 11  1  0  0  0
  4 15  1  0  0  0
  5  7  1  0  0  0
  5 10  2  0  0  0
  6 12  1  0  0  0
  6 13  1  0  0  0
  6 17  1  0  0  0
  7  8  2  0  0  0
  7 24  1  0  0  0
  8  9  1  0  0  0
  8 32  1  0  0  0
  9 14  2  0  0  0
  9 33  1  0  0  0
 10 16  1  0  0  0
 11 12  1  0  0  0
 11 20  1  0  0  0
 11 21  1  0  0  0
 12 25  1  0  0  0
 12 26  1  0  0  0
 13 15  1  0  0  0
 13 27  1  0  0  0
 13 28  1  0  0  0
 14 19  1  0  0  0
 15 22  1  0  0  0
 15 23  1  0  0  0
 17 29  1  0  0  0
 17 30  1  0  0  0
 17 31  1  0  0  0
M  END
$$$$
