12P
  CCTOOLS-0919241032

 87 86  0  0  0  0  0  0  0  0999 V2000
    0.8570    0.2530   15.3710 O   0  0  0  0  0
    1.4760   -0.7590   14.5760 C   0  0  0  0  0
    0.4240   -1.4220   13.6850 C   0  0  0  0  0
   -0.1640   -0.4400   12.8310 O   0  0  0  0  0
   -1.1330   -1.1180   12.0280 C   0  0  0  0  0
   -1.8050   -0.1170   11.0860 C   0  0  0  0  0
   -0.8180    0.4760   10.2410 O   0  0  0  0  0
   -1.5040    1.3960    9.3880 C   0  0  0  0  0
   -0.4990    2.0710    8.4530 C   0  0  0  0  0
    0.1510    1.0790    7.6570 O   0  0  0  0  0
    1.0720    1.7680    6.8090 C   0  0  0  0  0
    1.8060    0.7570    5.9250 C   0  0  0  0  0
    0.8590    0.0490    5.1230 O   0  0  0  0  0
    1.6020   -0.8740    4.3250 C   0  0  0  0  0
    0.6410   -1.6690    3.4380 C   0  0  0  0  0
   -0.0730   -0.7720    2.5870 O   0  0  0  0  0
   -0.9490   -1.5700    1.7880 C   0  0  0  0  0
   -1.7490   -0.6660    0.8480 C   0  0  0  0  0
   -0.8510    0.0520    0.0000 O   0  0  0  0  0
   -1.6540    0.8740   -0.8480 C   0  0  0  0  0
   -0.7500    1.6740   -1.7880 C   0  0  0  0  0
    0.0200    0.7750   -2.5870 O   0  0  0  0  0
    0.8400    1.5780   -3.4380 C   0  0  0  0  0
    1.6960    0.6720   -4.3250 C   0  0  0  0  0
    0.8460   -0.1530   -5.1230 O   0  0  0  0  0
    1.7000   -0.9720   -5.9250 C   0  0  0  0  0
    0.8480   -1.8850   -6.8090 C   0  0  0  0  0
    0.0180   -1.0890   -7.6570 O   0  0  0  0  0
   -0.7480   -1.9950   -8.4530 C   0  0  0  0  0
   -1.6630   -1.2020   -9.3880 C   0  0  0  0  0
   -0.8700   -0.3730  -10.2410 O   0  0  0  0  0
   -1.7770    0.3370  -11.0860 C   0  0  0  0  0
   -0.9880    1.2480  -12.0280 C   0  0  0  0  0
   -0.1100    0.4570  -12.8310 O   0  0  0  0  0
    0.5940    1.3600  -13.6850 C   0  0  0  0  0
    1.5570    0.5730  -14.5760 C   0  0  0  0  0
    0.8190   -0.3560  -15.3710 O   0  0  0  0  0
    1.5520    0.6450   15.9160 H   0  0  0  0  0
    1.9260   -1.5080   15.2280 H   0  0  0  0  0
    2.2490   -0.3090   13.9520 H   0  0  0  0  0
   -0.3480   -1.8720   14.3090 H   0  0  0  0  0
    0.8970   -2.1950   13.0790 H   0  0  0  0  0
   -1.8860   -1.5720   12.6730 H   0  0  0  0  0
   -0.6400   -1.8940   11.4430 H   0  0  0  0  0
   -2.2970    0.6580   11.6710 H   0  0  0  0  0
   -2.5440   -0.6340   10.4740 H   0  0  0  0  0
   -2.0000    2.1530    9.9960 H   0  0  0  0  0
   -2.2460    0.8600    8.7980 H   0  0  0  0  0
    0.2430    2.6080    9.0430 H   0  0  0  0  0
   -1.0220    2.7720    7.8030 H   0  0  0  0  0
    1.7940    2.3080    7.4200 H   0  0  0  0  0
    0.5280    2.4730    6.1800 H   0  0  0  0  0
    2.3490    0.0520    6.5540 H   0  0  0  0  0
    2.5080    1.2830    5.2780 H   0  0  0  0  0
    2.1470   -1.5580    4.9750 H   0  0  0  0  0
    2.3070   -0.3270    3.6990 H   0  0  0  0  0
   -0.0630   -2.2160    4.0650 H   0  0  0  0  0
    1.2080   -2.3730    2.8290 H   0  0  0  0  0
   -1.6330   -2.1180    2.4350 H   0  0  0  0  0
   -0.3610   -2.2760    1.2000 H   0  0  0  0  0
   -2.3360    0.0390    1.4360 H   0  0  0  0  0
   -2.4160   -1.2750    0.2390 H   0  0  0  0  0
   -2.2430    1.5600   -0.2390 H   0  0  0  0  0
   -2.3230    0.2450   -1.4360 H   0  0  0  0  0
   -0.0810    2.3030   -1.2000 H   0  0  0  0  0
   -1.3630    2.3010   -2.4350 H   0  0  0  0  0
    1.4890    2.2080   -2.8290 H   0  0  0  0  0
    0.2070    2.2070   -4.0650 H   0  0  0  0  0
    2.3290    0.0430   -3.6990 H   0  0  0  0  0
    2.3210    1.2850   -4.9750 H   0  0  0  0  0
    2.3330   -1.5790   -5.2780 H   0  0  0  0  0
    2.3250   -0.3380   -6.5540 H   0  0  0  0  0
    0.2230   -2.5190   -6.1800 H   0  0  0  0  0
    1.4990   -2.5100   -7.4200 H   0  0  0  0  0
   -1.3530   -2.6270   -7.8030 H   0  0  0  0  0
   -0.0760   -2.6180   -9.0430 H   0  0  0  0  0
   -2.3350   -0.5790   -8.7980 H   0  0  0  0  0
   -2.2480   -1.8930   -9.9960 H   0  0  0  0  0
   -2.4470    0.9400  -10.4740 H   0  0  0  0  0
   -2.3610   -0.3730  -11.6710 H   0  0  0  0  0
   -0.4050    1.9580  -11.4430 H   0  0  0  0  0
   -1.6800    1.7900  -12.6730 H   0  0  0  0  0
    1.1570    2.0690  -13.0790 H   0  0  0  0  0
   -0.1170    1.9010  -14.3090 H   0  0  0  0  0
    2.2700    0.0320  -13.9520 H   0  0  0  0  0
    2.0950    1.2620  -15.2280 H   0  0  0  0  0
    1.4620   -0.8300  -15.9160 H   0  0  0  0  0
  1  2  1  0  0  0
  1 38  1  0  0  0
  2  3  1  0  0  0
  2 39  1  0  0  0
  2 40  1  0  0  0
  3  4  1  0  0  0
  3 41  1  0  0  0
  3 42  1  0  0  0
  4  5  1  0  0  0
  5  6  1  0  0  0
  5 43  1  0  0  0
  5 44  1  0  0  0
  6  7  1  0  0  0
  6 45  1  0  0  0
  6 46  1  0  0  0
  7  8  1  0  0  0
  8  9  1  0  0  0
  8 47  1  0  0  0
  8 48  1  0  0  0
  9 10  1  0  0  0
  9 49  1  0  0  0
  9 50  1  0  0  0
 10 11  1  0  0  0
 11 12  1  0  0  0
 11 51  1  0  0  0
 11 52  1  0  0  0
 12 13  1  0  0  0
 12 53  1  0  0  0
 12 54  1  0  0  0
 13 14  1  0  0  0
 14 15  1  0  0  0
 14 55  1  0  0  0
 14 56  1  0  0  0
 15 16  1  0  0  0
 15 57  1  0  0  0
 15 58  1  0  0  0
 16 17  1  0  0  0
 17 18  1  0  0  0
 17 59  1  0  0  0
 17 60  1  0  0  0
 18 19  1  0  0  0
 18 61  1  0  0  0
 18 62  1  0  0  0
 19 20  1  0  0  0
 20 21  1  0  0  0
 20 63  1  0  0  0
 20 64  1  0  0  0
 21 22  1  0  0  0
 21 65  1  0  0  0
 21 66  1  0  0  0
 22 23  1  0  0  0
 23 24  1  0  0  0
 23 67  1  0  0  0
 23 68  1  0  0  0
 24 25  1  0  0  0
 24 69  1  0  0  0
 24 70  1  0  0  0
 25 26  1  0  0  0
 26 27  1  0  0  0
 26 71  1  0  0  0
 26 72  1  0  0  0
 27 28  1  0  0  0
 27 73  1  0  0  0
 27 74  1  0  0  0
 28 29  1  0  0  0
 29 30  1  0  0  0
 29 75  1  0  0  0
 29 76  1  0  0  0
 30 31  1  0  0  0
 30 77  1  0  0  0
 30 78  1  0  0  0
 31 32  1  0  0  0
 32 33  1  0  0  0
 32 79  1  0  0  0
 32 80  1  0  0  0
 33 34  1  0  0  0
 33 81  1  0  0  0
 33 82  1  0  0  0
 34 35  1  0  0  0
 35 36  1  0  0  0
 35 83  1  0  0  0
 35 84  1  0  0  0
 36 37  1  0  0  0
 36 85  1  0  0  0
 36 86  1  0  0  0
 37 87  1  0  0  0
M  END
$$$$
