13M
  CCTOOLS-0919241032

 62 66  0  0  1  0  0  0  0  0999 V2000
   -7.4270    0.4880   -0.1840 C   0  0  0  0  0
   -7.3540   -0.6660    0.1650 O   0  0  0  0  0
   -6.4980    1.5150    0.4100 C   0  0  0  0  0
   -8.3320    0.8550   -1.1050 O   0  0  0  0  0
   -7.3180    2.5980    1.1160 C   0  0  0  0  0
   -2.0880   -2.6680   -1.2810 O   0  0  0  0  0
   -6.3870    3.7140    1.5910 C   0  0  0  0  0
   -5.5690    0.8390    1.4210 C   0  0  0  0  0
   -4.6380   -0.0990    0.6980 C   0  0  0  0  0
   -3.4960    0.3920    0.0940 C   0  0  0  0  0
   -2.6400   -0.4660   -0.5700 C   0  0  0  0  0
   -2.9280   -1.8210   -0.6290 C   0  0  0  0  0
   -4.0750   -2.3120   -0.0220 C   0  0  0  0  0
   -4.9240   -1.4510    0.6450 C   0  0  0  0  0
   -2.4470   -4.0500   -1.3020 C   0  0  0  0  0
   -1.3950    0.0710   -1.2290 C   0  0  0  0  0
    3.5130    0.2650   -0.3650 C   0  0  0  0  0
    4.5510   -0.0570    0.3700 C   0  0  0  0  0
    2.0500   -1.0330    1.0500 C   0  0  0  0  0
    7.4030    1.7370   -1.3290 C   0  0  0  0  0
    8.4240    1.3940   -0.5710 C   0  0  0  0  0
    2.1830   -0.2530   -0.0040 C   0  0  0  0  0
    8.2290    0.5130    0.5950 C   0  0  0  0  0
    7.0280    0.0610    0.8810 C   0  0  0  0  0
    6.7950   -0.8190    2.0360 C   0  0  0  0  0
    5.6010   -1.2660    2.3440 C   0  0  0  0  0
    3.6940    1.1440   -1.5330 C   0  0  0  0  0
    4.8930    1.6020   -1.8370 C   0  0  0  0  0
    6.0550    1.2370   -1.0080 C   0  0  0  0  0
    5.8900    0.4500    0.0280 C   0  0  0  0  0
    1.0060    0.0990   -0.8170 C   0  0  0  0  0
    4.4100   -0.9290    1.5500 C   0  0  0  0  0
    3.2210   -1.3900    1.8710 C   0  0  0  0  0
   -0.2250   -0.2790   -0.4200 N   0  0  0  0  0
    1.1450    0.7290   -1.8440 O   0  0  0  0  0
   -5.9030    1.9690   -0.3820 H   0  0  0  0  0
   -8.9030    0.1600   -1.4600 H   0  0  0  0  0
   -8.0520    3.0070    0.4220 H   0  0  0  0  0
   -7.8320    2.1630    1.9730 H   0  0  0  0  0
   -6.9600    4.4490    2.1570 H   0  0  0  0  0
   -5.6080    3.2930    2.2270 H   0  0  0  0  0
   -5.9290    4.1980    0.7280 H   0  0  0  0  0
   -4.9870    1.5980    1.9440 H   0  0  0  0  0
   -6.1640    0.2770    2.1410 H   0  0  0  0  0
   -3.2720    1.4480    0.1400 H   0  0  0  0  0
   -4.3010   -3.3670   -0.0670 H   0  0  0  0  0
   -5.8150   -1.8330    1.1220 H   0  0  0  0  0
   -2.5060   -4.4260   -0.2810 H   0  0  0  0  0
   -3.4160   -4.1670   -1.7880 H   0  0  0  0  0
   -1.6940   -4.6130   -1.8540 H   0  0  0  0  0
   -1.2940   -0.3650   -2.2220 H   0  0  0  0  0
   -1.4670    1.1550   -1.3130 H   0  0  0  0  0
    1.0740   -1.4130    1.3150 H   0  0  0  0  0
    7.5530    2.3830   -2.1820 H   0  0  0  0  0
    9.4120    1.7610   -0.8050 H   0  0  0  0  0
    9.0720    0.2370    1.2110 H   0  0  0  0  0
    7.6330   -1.0950    2.6580 H   0  0  0  0  0
    5.4900   -1.9090    3.2050 H   0  0  0  0  0
    2.8440    1.4130   -2.1420 H   0  0  0  0  0
    5.0230    2.2460   -2.6940 H   0  0  0  0  0
    3.1020   -2.0300    2.7330 H   0  0  0  0  0
   -0.3360   -0.7840    0.4010 H   0  0  0  0  0
  1  2  2  0  0  0
  1  3  1  0  0  0
  1  4  1  0  0  0
  3  5  1  0  0  0
  3  8  1  0  0  0
  3 36  1  0  0  0
  4 37  1  0  0  0
  5  7  1  0  0  0
  5 38  1  0  0  0
  5 39  1  0  0  0
  6 12  1  0  0  0
  6 15  1  0  0  0
  7 40  1  0  0  0
  7 41  1  0  0  0
  7 42  1  0  0  0
  8  9  1  0  0  0
  8 43  1  0  0  0
  8 44  1  0  0  0
  9 10  2  0  0  0
  9 14  1  0  0  0
 10 11  1  0  0  0
 10 45  1  0  0  0
 11 12  2  0  0  0
 11 16  1  0  0  0
 12 13  1  0  0  0
 13 14  2  0  0  0
 13 46  1  0  0  0
 14 47  1  0  0  0
 15 48  1  0  0  0
 15 49  1  0  0  0
 15 50  1  0  0  0
 16 34  1  0  0  0
 16 51  1  0  0  0
 16 52  1  0  0  0
 17 18  2  0  0  0
 17 22  1  0  0  0
 17 27  1  0  0  0
 18 30  1  0  0  0
 18 32  1  0  0  0
 19 22  2  0  0  0
 19 33  1  0  0  0
 19 53  1  0  0  0
 20 21  2  0  0  0
 20 29  1  0  0  0
 20 54  1  0  0  0
 21 23  1  0  0  0
 21 55  1  0  0  0
 22 31  1  0  0  0
 23 24  2  0  0  0
 23 56  1  0  0  0
 24 25  1  0  0  0
 24 30  1  0  0  0
 25 26  2  0  0  0
 25 57  1  0  0  0
 26 32  1  0  0  0
 26 58  1  0  0  0
 27 28  2  0  0  0
 27 59  1  0  0  0
 28 29  1  0  0  0
 28 60  1  0  0  0
 29 30  2  0  0  0
 31 34  1  0  0  0
 31 35  2  0  0  0
 32 33  2  0  0  0
 33 61  1  0  0  0
 34 62  1  0  0  0
M  END
$$$$
