13R
  CCTOOLS-0919241032

 54 53  0  0  1  0  0  0  0  0999 V2000
    1.4590   -0.1680   -8.3960 C   0  0  0  0  0
    1.5340    0.4290   -7.0150 C   0  0  0  0  0
    0.2830    0.0420   -6.2230 C   0  0  0  0  0
    0.3580    0.6490   -4.8210 C   0  0  0  0  0
   -0.8920    0.2620   -4.0290 C   0  0  0  0  0
   -0.8160    0.8690   -2.6270 C   0  0  0  0  0
   -2.0670    0.4820   -1.8360 C   0  0  0  0  0
   -1.9910    1.0890   -0.4330 C   0  0  0  0  0
   -3.2230    0.7070    0.3450 C   0  0  0  0  0
   -3.1040    0.1230    1.5330 C   0  0  0  0  0
   -1.7760   -0.0290    2.1470 C   0  0  0  0  0
   -1.6640   -0.5290    3.3730 C   0  0  0  0  0
   -0.3040   -0.6850    4.0020 C   0  0  0  0  0
   -0.2370    0.1420    5.2870 C   0  0  0  0  0
    1.1430   -0.0160    5.9250 C   0  0  0  0  0
    1.2090    0.8110    7.2100 C   0  0  0  0  0
    2.5900    0.6520    7.8490 C   0  0  0  0  0
    2.6570    1.4800    9.1330 C   0  0  0  0  0
    0.5040   -0.8360   -8.7150 O   0  0  0  0  0
    2.4540    0.0400   -9.2720 O   0  0  0  0  0
   -0.0770   -2.0620    4.3100 O   0  0  0  0  0
    0.5550   -2.6630    3.1290 O   0  0  0  0  0
    1.5930    1.5150   -7.0920 H   0  0  0  0  0
    2.4190    0.0520   -6.5030 H   0  0  0  0  0
    0.2230   -1.0430   -6.1460 H   0  0  0  0  0
   -0.6020    0.4190   -6.7350 H   0  0  0  0  0
    0.4180    1.7350   -4.8980 H   0  0  0  0  0
    1.2430    0.2720   -4.3090 H   0  0  0  0  0
   -0.9510   -0.8230   -3.9530 H   0  0  0  0  0
   -1.7770    0.6390   -4.5420 H   0  0  0  0  0
   -0.7570    1.9550   -2.7040 H   0  0  0  0  0
    0.0680    0.4920   -2.1150 H   0  0  0  0  0
   -2.1260   -0.6030   -1.7590 H   0  0  0  0  0
   -2.9520    0.8590   -2.3480 H   0  0  0  0  0
   -1.9320    2.1750   -0.5100 H   0  0  0  0  0
   -1.1060    0.7120    0.0780 H   0  0  0  0  0
   -4.2040    0.9090   -0.0600 H   0  0  0  0  0
   -3.9810   -0.2390    2.0470 H   0  0  0  0  0
   -0.8910    0.2640    1.6010 H   0  0  0  0  0
   -2.5490   -0.8230    3.9190 H   0  0  0  0  0
    0.4590   -0.3380    3.3060 H   0  0  0  0  0
   -1.0020   -0.2040    5.9820 H   0  0  0  0  0
   -0.4100    1.1920    5.0510 H   0  0  0  0  0
    1.9070    0.3300    5.2300 H   0  0  0  0  0
    1.3160   -1.0660    6.1610 H   0  0  0  0  0
    0.4450    0.4640    7.9060 H   0  0  0  0  0
    1.0360    1.8610    6.9750 H   0  0  0  0  0
    3.3540    0.9990    7.1530 H   0  0  0  0  0
    2.7630   -0.3970    8.0840 H   0  0  0  0  0
    3.6410    1.3670    9.5880 H   0  0  0  0  0
    2.4840    2.5300    8.8980 H   0  0  0  0  0
    1.8930    1.1330    9.8290 H   0  0  0  0  0
    2.4070   -0.3430  -10.1590 H   0  0  0  0  0
    0.7090   -3.5950    3.3380 H   0  0  0  0  0
  1  2  1  0  0  0
  1 19  2  0  0  0
  1 20  1  0  0  0
  2  3  1  0  0  0
  2 23  1  0  0  0
  2 24  1  0  0  0
  3  4  1  0  0  0
  3 25  1  0  0  0
  3 26  1  0  0  0
  4  5  1  0  0  0
  4 27  1  0  0  0
  4 28  1  0  0  0
  5  6  1  0  0  0
  5 29  1  0  0  0
  5 30  1  0  0  0
  6  7  1  0  0  0
  6 31  1  0  0  0
  6 32  1  0  0  0
  7  8  1  0  0  0
  7 33  1  0  0  0
  7 34  1  0  0  0
  8  9  1  0  0  0
  8 35  1  0  0  0
  8 36  1  0  0  0
  9 10  2  0  0  0
  9 37  1  0  0  0
 10 11  1  0  0  0
 10 38  1  0  0  0
 11 12  2  0  0  0
 11 39  1  0  0  0
 12 13  1  0  0  0
 12 40  1  0  0  0
 13 14  1  0  0  0
 13 21  1  0  0  0
 13 41  1  0  0  0
 14 15  1  0  0  0
 14 42  1  0  0  0
 14 43  1  0  0  0
 15 16  1  0  0  0
 15 44  1  0  0  0
 15 45  1  0  0  0
 16 17  1  0  0  0
 16 46  1  0  0  0
 16 47  1  0  0  0
 17 18  1  0  0  0
 17 48  1  0  0  0
 17 49  1  0  0  0
 18 50  1  0  0  0
 18 51  1  0  0  0
 18 52  1  0  0  0
 20 53  1  0  0  0
 21 22  1  0  0  0
 22 54  1  0  0  0
M  END
$$$$
