13S
  CCTOOLS-0919241032

 54 53  0  0  1  0  0  0  0  0999 V2000
    1.4590   -0.1330   -8.3340 C   0  0  0  0  0
    1.5020    0.4350   -6.9390 C   0  0  0  0  0
    0.2510    0.0000   -6.1730 C   0  0  0  0  0
    0.2940    0.5780   -4.7570 C   0  0  0  0  0
   -0.9560    0.1430   -3.9900 C   0  0  0  0  0
   -0.9130    0.7200   -2.5740 C   0  0  0  0  0
   -2.1640    0.2850   -1.8080 C   0  0  0  0  0
   -2.1210    0.8630   -0.3920 C   0  0  0  0  0
   -3.3530    0.4340    0.3620 C   0  0  0  0  0
   -3.2340   -0.1720    1.5380 C   0  0  0  0  0
   -1.9110   -0.3060    2.1660 C   0  0  0  0  0
   -1.8020   -0.8300    3.3820 C   0  0  0  0  0
   -0.4460   -0.9680    4.0250 C   0  0  0  0  0
   -0.4170   -0.1670    5.3290 C   0  0  0  0  0
    0.9590   -0.3070    5.9820 C   0  0  0  0  0
    0.9890    0.4930    7.2850 C   0  0  0  0  0
    2.3650    0.3540    7.9380 C   0  0  0  0  0
    2.3950    1.1550    9.2420 C   0  0  0  0  0
    0.5250   -0.8160   -8.6800 O   0  0  0  0  0
    2.4600    0.1190   -9.1920 O   0  0  0  0  0
    0.5540   -0.4690    3.1370 O   0  0  0  0  0
    1.7810   -1.2290    3.4100 O   0  0  0  0  0
    1.5350    1.5230   -6.9910 H   0  0  0  0  0
    2.3890    0.0680   -6.4240 H   0  0  0  0  0
    0.2170   -1.0870   -6.1200 H   0  0  0  0  0
   -0.6360    0.3670   -6.6880 H   0  0  0  0  0
    0.3270    1.6660   -4.8090 H   0  0  0  0  0
    1.1810    0.2110   -4.2410 H   0  0  0  0  0
   -0.9900   -0.9450   -3.9380 H   0  0  0  0  0
   -1.8440    0.5090   -4.5060 H   0  0  0  0  0
   -0.8800    1.8090   -2.6270 H   0  0  0  0  0
   -0.0260    0.3540   -2.0590 H   0  0  0  0  0
   -2.1980   -0.8020   -1.7550 H   0  0  0  0  0
   -3.0520    0.6520   -2.3230 H   0  0  0  0  0
   -2.0870    1.9510   -0.4440 H   0  0  0  0  0
   -1.2330    0.4960    0.1230 H   0  0  0  0  0
   -4.3330    0.6210   -0.0520 H   0  0  0  0  0
   -4.1090   -0.5670    2.0330 H   0  0  0  0  0
   -1.0270    0.0200    1.6380 H   0  0  0  0  0
   -2.6860   -1.1580    3.9100 H   0  0  0  0  0
   -0.2510   -2.0180    4.2400 H   0  0  0  0  0
   -1.1810   -0.5480    6.0070 H   0  0  0  0  0
   -0.6120    0.8830    5.1140 H   0  0  0  0  0
    1.7230    0.0730    5.3040 H   0  0  0  0  0
    1.1540   -1.3570    6.1960 H   0  0  0  0  0
    0.2250    0.1130    7.9630 H   0  0  0  0  0
    0.7930    1.5440    7.0710 H   0  0  0  0  0
    3.1290    0.7340    7.2600 H   0  0  0  0  0
    2.5610   -0.6960    8.1530 H   0  0  0  0  0
    3.3760    1.0550    9.7070 H   0  0  0  0  0
    2.1990    2.2050    9.0270 H   0  0  0  0  0
    1.6310    0.7740    9.9190 H   0  0  0  0  0
    2.4330   -0.2460  -10.0870 H   0  0  0  0  0
    2.4590   -0.8910    2.8090 H   0  0  0  0  0
  1  2  1  0  0  0
  1 19  2  0  0  0
  1 20  1  0  0  0
  2  3  1  0  0  0
  2 23  1  0  0  0
  2 24  1  0  0  0
  3  4  1  0  0  0
  3 25  1  0  0  0
  3 26  1  0  0  0
  4  5  1  0  0  0
  4 27  1  0  0  0
  4 28  1  0  0  0
  5  6  1  0  0  0
  5 29  1  0  0  0
  5 30  1  0  0  0
  6  7  1  0  0  0
  6 31  1  0  0  0
  6 32  1  0  0  0
  7  8  1  0  0  0
  7 33  1  0  0  0
  7 34  1  0  0  0
  8  9  1  0  0  0
  8 35  1  0  0  0
  8 36  1  0  0  0
  9 10  2  0  0  0
  9 37  1  0  0  0
 10 11  1  0  0  0
 10 38  1  0  0  0
 11 12  2  0  0  0
 11 39  1  0  0  0
 12 13  1  0  0  0
 12 40  1  0  0  0
 13 14  1  0  0  0
 13 21  1  0  0  0
 13 41  1  0  0  0
 14 15  1  0  0  0
 14 42  1  0  0  0
 14 43  1  0  0  0
 15 16  1  0  0  0
 15 44  1  0  0  0
 15 45  1  0  0  0
 16 17  1  0  0  0
 16 46  1  0  0  0
 16 47  1  0  0  0
 17 18  1  0  0  0
 17 48  1  0  0  0
 17 49  1  0  0  0
 18 50  1  0  0  0
 18 51  1  0  0  0
 18 52  1  0  0  0
 20 53  1  0  0  0
 21 22  1  0  0  0
 22 54  1  0  0  0
M  END
$$$$
