140
  CCTOOLS-0919241032

 57 56  0  0  0  0  0  0  0  0999 V2000
   -0.2790   -0.0030   -9.6580 C   0  0  0  0  0
   -1.4810   -0.0160   -9.5380 O   0  0  0  0  0
    0.2720    0.0030  -10.8810 O   0  0  0  0  0
    0.5990    0.0060   -8.4340 C   0  0  0  0  0
   -0.2370   -0.0020   -7.2310 N   0  0  0  0  0
    0.3360    0.0030   -6.0110 C   0  0  0  0  0
    1.5440    0.0160   -5.9090 O   0  0  0  0  0
   -0.5240   -0.0050   -4.7740 C   0  0  0  0  0
    0.3670    0.0040   -3.5320 C   0  0  0  0  0
   -0.5060   -0.0050   -2.2760 C   0  0  0  0  0
    0.3860    0.0040   -1.0330 C   0  0  0  0  0
   -0.4870   -0.0050    0.2210 C   0  0  0  0  0
    0.4050    0.0040    1.4640 C   0  0  0  0  0
   -0.4680   -0.0050    2.7200 C   0  0  0  0  0
    0.4240    0.0040    3.9620 C   0  0  0  0  0
   -0.4490   -0.0040    5.2180 C   0  0  0  0  0
    0.4420    0.0040    6.4610 C   0  0  0  0  0
   -0.4310   -0.0040    7.7170 C   0  0  0  0  0
    0.4610    0.0050    8.9590 C   0  0  0  0  0
   -0.4120   -0.0040   10.2150 C   0  0  0  0  0
    0.4800    0.0050   11.4580 C   0  0  0  0  0
   -0.3930   -0.0040   12.7140 C   0  0  0  0  0
   -0.2910   -0.0030  -11.6660 H   0  0  0  0  0
    1.2190    0.9030   -8.4380 H   0  0  0  0  0
    1.2380   -0.8760   -8.4380 H   0  0  0  0  0
   -1.2030   -0.0130   -7.3130 H   0  0  0  0  0
   -1.1440   -0.9020   -4.7700 H   0  0  0  0  0
   -1.1630    0.8770   -4.7700 H   0  0  0  0  0
    0.9870    0.9000   -3.5370 H   0  0  0  0  0
    1.0060   -0.8790   -3.5370 H   0  0  0  0  0
   -1.1250   -0.9020   -2.2710 H   0  0  0  0  0
   -1.1450    0.8770   -2.2710 H   0  0  0  0  0
    1.0060    0.9010   -1.0380 H   0  0  0  0  0
    1.0250   -0.8780   -1.0380 H   0  0  0  0  0
   -1.1060   -0.9020    0.2260 H   0  0  0  0  0
   -1.1260    0.8770    0.2260 H   0  0  0  0  0
    1.0240    0.9010    1.4590 H   0  0  0  0  0
    1.0440   -0.8780    1.4590 H   0  0  0  0  0
   -1.0880   -0.9010    2.7250 H   0  0  0  0  0
   -1.1070    0.8770    2.7250 H   0  0  0  0  0
    1.0430    0.9010    3.9580 H   0  0  0  0  0
    1.0630   -0.8780    3.9580 H   0  0  0  0  0
   -1.0690   -0.9010    5.2230 H   0  0  0  0  0
   -1.0880    0.8780    5.2230 H   0  0  0  0  0
    1.0620    0.9010    6.4560 H   0  0  0  0  0
    1.0810   -0.8780    6.4560 H   0  0  0  0  0
   -1.0500   -0.9010    7.7210 H   0  0  0  0  0
   -1.0700    0.8780    7.7210 H   0  0  0  0  0
    1.0810    0.9010    8.9550 H   0  0  0  0  0
    1.1000   -0.8780    8.9550 H   0  0  0  0  0
   -1.0310   -0.9010   10.2200 H   0  0  0  0  0
   -1.0510    0.8780   10.2200 H   0  0  0  0  0
    1.0990    0.9020   11.4530 H   0  0  0  0  0
    1.1190   -0.8770   11.4530 H   0  0  0  0  0
    0.2420    0.0020   13.5990 H   0  0  0  0  0
   -1.0320    0.8780   12.7180 H   0  0  0  0  0
   -1.0130   -0.9010   12.7180 H   0  0  0  0  0
  1  2  2  0  0  0
  1  3  1  0  0  0
  1  4  1  0  0  0
  3 23  1  0  0  0
  4  5  1  0  0  0
  4 24  1  0  0  0
  4 25  1  0  0  0
  5  6  1  0  0  0
  5 26  1  0  0  0
  6  7  2  0  0  0
  6  8  1  0  0  0
  8  9  1  0  0  0
  8 27  1  0  0  0
  8 28  1  0  0  0
  9 10  1  0  0  0
  9 29  1  0  0  0
  9 30  1  0  0  0
 10 11  1  0  0  0
 10 31  1  0  0  0
 10 32  1  0  0  0
 11 12  1  0  0  0
 11 33  1  0  0  0
 11 34  1  0  0  0
 12 13  1  0  0  0
 12 35  1  0  0  0
 12 36  1  0  0  0
 13 14  1  0  0  0
 13 37  1  0  0  0
 13 38  1  0  0  0
 14 15  1  0  0  0
 14 39  1  0  0  0
 14 40  1  0  0  0
 15 16  1  0  0  0
 15 41  1  0  0  0
 15 42  1  0  0  0
 16 17  1  0  0  0
 16 43  1  0  0  0
 16 44  1  0  0  0
 17 18  1  0  0  0
 17 45  1  0  0  0
 17 46  1  0  0  0
 18 19  1  0  0  0
 18 47  1  0  0  0
 18 48  1  0  0  0
 19 20  1  0  0  0
 19 49  1  0  0  0
 19 50  1  0  0  0
 20 21  1  0  0  0
 20 51  1  0  0  0
 20 52  1  0  0  0
 21 22  1  0  0  0
 21 53  1  0  0  0
 21 54  1  0  0  0
 22 55  1  0  0  0
 22 56  1  0  0  0
 22 57  1  0  0  0
M  END
$$$$
