147
  CCTOOLS-0919241032

 36 37  0  0  1  0  0  0  0  0999 V2000
   -1.1920   -0.7830   -0.1110 C   0  0  0  0  0
   -2.6160   -1.3390   -0.0440 C   0  0  0  0  0
   -2.6590   -2.6220   -0.6730 O   0  0  0  0  0
   -3.5630   -0.3780   -0.7710 C   0  0  0  0  0
   -4.9140   -0.8070   -0.5900 O   0  0  0  0  0
   -3.3830    1.0260   -0.1820 C   0  0  0  0  0
   -3.8290    1.0360    1.1760 O   0  0  0  0  0
   -1.9010    1.4040   -0.2400 C   0  0  0  0  0
   -1.7140    2.8180    0.3140 C   0  0  0  0  0
   -0.3520    3.2180    0.1500 O   0  0  0  0  0
   -1.1380    0.4850    0.5400 O   0  0  0  0  0
   -0.2980   -1.6890    0.5380 O   0  0  0  0  0
    0.9580   -1.2070    0.3450 C   0  0  0  0  0
    2.0500   -1.8850    0.8670 C   0  0  0  0  0
    3.3250   -1.3940    0.6690 C   0  0  0  0  0
    3.5150   -0.2280   -0.0490 C   0  0  0  0  0
    2.4280    0.4500   -0.5700 C   0  0  0  0  0
    1.1510   -0.0400   -0.3800 C   0  0  0  0  0
    4.8830    0.2970   -0.2590 N   0  3  0  0  0
    5.8400   -0.2990    0.2010 O   0  5  0  0  0
    5.0510    1.3240   -0.8910 O   0  0  0  0  0
   -0.8970   -0.6670   -1.1540 H   0  0  0  0  0
   -2.9220   -1.4340    0.9980 H   0  0  0  0  0
   -2.0450   -3.1910   -0.1880 H   0  0  0  0  0
   -3.3240   -0.3630   -1.8340 H   0  0  0  0  0
   -4.9770   -1.6960   -0.9630 H   0  0  0  0  0
   -3.9630    1.7430   -0.7620 H   0  0  0  0  0
   -4.7630    0.7870    1.1640 H   0  0  0  0  0
   -1.5590    1.3720   -1.2750 H   0  0  0  0  0
   -1.9720    2.8310    1.3730 H   0  0  0  0  0
   -2.3630    3.5080   -0.2260 H   0  0  0  0  0
   -0.2780    4.1120    0.5110 H   0  0  0  0  0
    1.9020   -2.7960    1.4290 H   0  0  0  0  0
    4.1760   -1.9210    1.0760 H   0  0  0  0  0
    2.5790    1.3610   -1.1310 H   0  0  0  0  0
    0.3020    0.4890   -0.7880 H   0  0  0  0  0
  1  2  1  0  0  0
  1 11  1  0  0  0
  1 12  1  0  0  0
  1 22  1  0  0  0
  2  3  1  0  0  0
  2  4  1  0  0  0
  2 23  1  0  0  0
  3 24  1  0  0  0
  4  5  1  0  0  0
  4  6  1  0  0  0
  4 25  1  0  0  0
  5 26  1  0  0  0
  6  7  1  0  0  0
  6  8  1  0  0  0
  6 27  1  0  0  0
  7 28  1  0  0  0
  8  9  1  0  0  0
  8 11  1  0  0  0
  8 29  1  0  0  0
  9 10  1  0  0  0
  9 30  1  0  0  0
  9 31  1  0  0  0
 10 32  1  0  0  0
 12 13  1  0  0  0
 13 14  2  0  0  0
 13 18  1  0  0  0
 14 15  1  0  0  0
 14 33  1  0  0  0
 15 16  2  0  0  0
 15 34  1  0  0  0
 16 17  1  0  0  0
 16 19  1  0  0  0
 17 18  2  0  0  0
 17 35  1  0  0  0
 18 36  1  0  0  0
 19 20  1  0  0  0
 19 21  2  0  0  0
M  CHG  1  19   1
M  CHG  1  20  -1
M  END
$$$$
