15F
  CCTOOLS-0919241032

 35 36  0  0  0  0  0  0  0  0999 V2000
    0.5250   -0.4860   -0.0130 C   0  0  0  0  0
    1.1380   -0.1550    1.1860 C   0  0  0  0  0
    2.3340    0.5380    1.1610 C   0  0  0  0  0
    1.1400   -0.1070   -1.1960 C   0  0  0  0  0
    2.3360    0.5840   -1.1420 C   0  0  0  0  0
    2.8900    0.8820    0.0170 N   0  3  0  0  0
    4.1580    1.6160    0.0330 C   0  0  0  0  0
    5.3050    0.6380    0.0140 C   0  0  0  0  0
    5.8320    0.2140   -1.1920 C   0  0  0  0  0
    6.8830   -0.6830   -1.2090 C   0  0  0  0  0
    7.4090   -1.1550   -0.0210 C   0  0  0  0  0
    6.8820   -0.7300    1.1840 C   0  0  0  0  0
    5.8340    0.1700    1.2020 C   0  0  0  0  0
   -5.8180   -0.9240   -0.0190 CL  0  0  0  0  0
   -4.3110    0.0650    0.0020 C   0  0  0  0  0
   -4.2760    1.1380   -1.4460 CL  0  0  0  0  0
   -4.2750    1.0730    1.4970 CL  0  0  0  0  0
   -3.1110   -0.8460   -0.0190 C   0  0  0  0  0
   -3.2740   -2.1260   -0.0470 N   0  0  0  0  0
   -1.8670   -0.3240   -0.0080 O   0  0  0  0  0
   -0.7760   -1.2470   -0.0290 C   0  0  0  0  0
    0.6870   -0.4350    2.1260 H   0  0  0  0  0
    0.6910   -0.3490   -2.1480 H   0  0  0  0  0
   -0.8310   -1.8540   -0.9330 H   0  0  0  0  0
   -0.8300   -1.8930    0.8470 H   0  0  0  0  0
    2.8180    0.8000    2.0910 H   0  0  0  0  0
    2.8210    0.8830   -2.0590 H   0  0  0  0  0
    4.2160    2.2610   -0.8450 H   0  0  0  0  0
    4.2150    2.2250    0.9350 H   0  0  0  0  0
    5.4210    0.5830   -2.1200 H   0  0  0  0  0
    5.4250    0.5050    2.1440 H   0  0  0  0  0
    7.2940   -1.0150   -2.1510 H   0  0  0  0  0
    8.2300   -1.8570   -0.0350 H   0  0  0  0  0
    7.2930   -1.1000    2.1130 H   0  0  0  0  0
   -2.5010   -2.7130   -0.0610 H   0  0  0  0  0
  1  2  2  0  0  0
  1  4  1  0  0  0
  1 21  1  0  0  0
  2  3  1  0  0  0
  2 22  1  0  0  0
  3  6  2  0  0  0
  3 26  1  0  0  0
  4  5  2  0  0  0
  4 23  1  0  0  0
  5  6  1  0  0  0
  5 27  1  0  0  0
  6  7  1  0  0  0
  7  8  1  0  0  0
  7 28  1  0  0  0
  7 29  1  0  0  0
  8  9  1  0  0  0
  8 13  2  0  0  0
  9 10  2  0  0  0
  9 30  1  0  0  0
 10 11  1  0  0  0
 10 32  1  0  0  0
 11 12  2  0  0  0
 11 33  1  0  0  0
 12 13  1  0  0  0
 12 34  1  0  0  0
 13 31  1  0  0  0
 14 15  1  0  0  0
 15 16  1  0  0  0
 15 17  1  0  0  0
 15 18  1  0  0  0
 18 19  2  0  0  0
 18 20  1  0  0  0
 19 35  1  0  0  0
 20 21  1  0  0  0
 21 24  1  0  0  0
 21 25  1  0  0  0
M  CHG  1   6   1
M  END
$$$$
