15P
  CCTOOLS-0919241032

244243  0  0  0  0  0  0  0  0999 V2000
  -44.0360  -36.7190  -17.3680 O   0  0  0  0  0
  -42.7170  -36.2850  -17.6790 C   0  0  0  0  0
  -41.9020  -36.2260  -16.4020 C   0  0  0  0  0
  -42.5020  -35.2940  -15.5110 O   0  0  0  0  0
  -41.7770  -35.1970  -14.2930 C   0  0  0  0  0
  -42.4500  -34.1750  -13.3960 C   0  0  0  0  0
  -42.4410  -32.9100  -14.0470 O   0  0  0  0  0
  -43.0600  -31.9110  -13.2490 C   0  0  0  0  0
  -42.9990  -30.5850  -13.9830 C   0  0  0  0  0
  -41.6370  -30.2340  -14.1960 O   0  0  0  0  0
  -41.5200  -28.9960  -14.8810 C   0  0  0  0  0
  -40.0500  -28.6650  -15.0580 C   0  0  0  0  0
  -39.4440  -28.5490  -13.7760 O   0  0  0  0  0
  -38.0610  -28.2390  -13.8810 C   0  0  0  0  0
  -37.4770  -28.1050  -12.4880 C   0  0  0  0  0
  -38.1420  -27.0490  -11.8050 O   0  0  0  0  0
  -37.6340  -26.8780  -10.4900 C   0  0  0  0  0
  -38.3630  -25.7270   -9.8230 C   0  0  0  0  0
  -38.1350  -24.5380  -10.5710 O   0  0  0  0  0
  -38.7970  -23.4230   -9.9900 C   0  0  0  0  0
  -38.4980  -22.1860  -10.8140 C   0  0  0  0  0
  -37.0950  -21.9520  -10.8080 O   0  0  0  0  0
  -36.7560  -20.8000  -11.5680 C   0  0  0  0  0
  -35.2550  -20.5890  -11.5040 C   0  0  0  0  0
  -34.8730  -20.3840  -10.1490 O   0  0  0  0  0
  -33.4720  -20.1800  -10.0290 C   0  0  0  0  0
  -33.1290  -19.9450   -8.5710 C   0  0  0  0  0
  -33.8110  -18.7820   -8.1160 O   0  0  0  0  0
  -33.5260  -18.5120   -6.7510 C   0  0  0  0  0
  -34.2600  -17.2530   -6.3310 C   0  0  0  0  0
  -33.8060  -16.1650   -7.1270 O   0  0  0  0  0
  -34.4620  -14.9540   -6.7770 C   0  0  0  0  0
  -33.9210  -13.8310   -7.6390 C   0  0  0  0  0
  -32.5260  -13.6920   -7.4000 O   0  0  0  0  0
  -31.9640  -12.6490   -8.1850 C   0  0  0  0  0
  -30.4850  -12.5340   -7.8700 C   0  0  0  0  0
  -30.3280  -12.2190   -6.4920 O   0  0  0  0  0
  -28.9570  -12.0980   -6.1390 C   0  0  0  0  0
  -28.8530  -11.7390   -4.6700 C   0  0  0  0  0
  -29.5030  -10.4930   -4.4500 O   0  0  0  0  0
  -29.4380  -10.1050   -3.0850 C   0  0  0  0  0
  -30.1240   -8.7630   -2.9180 C   0  0  0  0  0
  -29.4490   -7.7940   -3.7120 O   0  0  0  0  0
  -30.0510   -6.5130   -3.5940 C   0  0  0  0  0
  -29.2760   -5.5220   -4.4410 C   0  0  0  0  0
  -27.9370   -5.4540   -3.9670 O   0  0  0  0  0
  -27.1620   -4.5370   -4.7260 C   0  0  0  0  0
  -25.7550   -4.4910   -4.1600 C   0  0  0  0  0
  -25.8130   -4.0470   -2.8100 O   0  0  0  0  0
  -24.5190   -3.9840   -2.2270 C   0  0  0  0  0
  -24.6420   -3.4850   -0.8010 C   0  0  0  0  0
  -25.2130   -2.1820   -0.8130 O   0  0  0  0  0
  -25.3520   -1.6620    0.5020 C   0  0  0  0  0
  -25.9630   -0.2760    0.4240 C   0  0  0  0  0
  -25.0990    0.5710   -0.3240 O   0  0  0  0  0
  -25.6340    1.8810   -0.4480 C   0  0  0  0  0
  -24.6720    2.7340   -1.2520 C   0  0  0  0  0
  -23.4270    2.8010   -0.5670 O   0  0  0  0  0
  -22.4770    3.5730   -1.2880 C   0  0  0  0  0
  -21.1750    3.6070   -0.5100 C   0  0  0  0  0
  -21.4060    4.2140    0.7550 O   0  0  0  0  0
  -20.2210    4.2530    1.5380 C   0  0  0  0  0
  -20.5290    4.9090    2.8700 C   0  0  0  0  0
  -20.9810    6.2380    2.6400 O   0  0  0  0  0
  -21.3070    6.8950    3.8570 C   0  0  0  0  0
  -21.7810    8.3020    3.5470 C   0  0  0  0  0
  -20.7330    9.0130    2.8990 O   0  0  0  0  0
  -21.1300   10.3350    2.5650 C   0  0  0  0  0
  -19.9750   11.0400    1.8780 C   0  0  0  0  0
  -18.8690   11.0950    2.7710 O   0  0  0  0  0
  -17.7470   11.7280    2.1710 C   0  0  0  0  0
  -16.6040   11.7570    3.1670 C   0  0  0  0  0
  -17.0040   12.5020    4.3110 O   0  0  0  0  0
  -15.9760   12.5440    5.2900 C   0  0  0  0  0
  -16.4590   13.3490    6.4810 C   0  0  0  0  0
  -16.7540   14.6740    6.0570 O   0  0  0  0  0
  -17.2340   15.4700    7.1310 C   0  0  0  0  0
  -17.5300   16.8660    6.6190 C   0  0  0  0  0
  -18.5020   16.7840    5.5830 O   0  0  0  0  0
  -18.8350   18.0700    5.0790 C   0  0  0  0  0
  -19.8720   17.9180    3.9820 C   0  0  0  0  0
  -19.3230   17.1320    2.9310 O   0  0  0  0  0
  -20.2610   16.9380    1.8820 C   0  0  0  0  0
  -19.6210   16.0960    0.7950 C   0  0  0  0  0
  -18.4850   16.7830    0.2850 O   0  0  0  0  0
  -17.8310   16.0280   -0.7250 C   0  0  0  0  0
  -16.6320   16.8090   -1.2290 C   0  0  0  0  0
  -15.7510   17.0590   -0.1410 O   0  0  0  0  0
  -14.5960   17.7720   -0.5600 C   0  0  0  0  0
  -13.6980   18.0080    0.6400 C   0  0  0  0  0
  -14.4020   18.7840    1.6010 O   0  0  0  0  0
  -13.6140   19.0190    2.7590 C   0  0  0  0  0
  -14.4150   19.8480    3.7440 C   0  0  0  0  0
  -14.7430   21.0950    3.1420 O   0  0  0  0  0
  -15.5160   21.9070    4.0140 C   0  0  0  0  0
  -15.8330   23.2180    3.3190 C   0  0  0  0  0
  -16.5500   22.9460    2.1210 O   0  0  0  0  0
  -16.8940   24.1430    1.4380 C   0  0  0  0  0
  -17.6540   23.7900    0.1740 C   0  0  0  0  0
  -16.8210   22.9970   -0.6630 O   0  0  0  0  0
  -17.4910   22.6170   -1.8560 C   0  0  0  0  0
  -16.5560   21.7770   -2.7040 C   0  0  0  0  0
  -15.4110   22.5510   -3.0380 O   0  0  0  0  0
  -14.4860   21.8040   -3.8170 C   0  0  0  0  0
  -44.1660  -37.5650  -17.8240 H   0  0  0  0  0
  -42.2840  -36.9940  -18.3910 H   0  0  0  0  0
  -42.7820  -35.2940  -18.1380 H   0  0  0  0  0
  -40.8780  -35.8940  -16.6020 H   0  0  0  0  0
  -41.8840  -37.2040  -15.9140 H   0  0  0  0  0
  -41.7650  -36.1860  -13.8240 H   0  0  0  0  0
  -40.7540  -34.8870  -14.5260 H   0  0  0  0  0
  -41.9170  -34.0730  -12.4450 H   0  0  0  0  0
  -43.4900  -34.4570  -13.2080 H   0  0  0  0  0
  -44.0960  -32.2140  -13.0670 H   0  0  0  0  0
  -42.5220  -31.8480  -12.2990 H   0  0  0  0  0
  -43.4690  -29.7880  -13.3970 H   0  0  0  0  0
  -43.4900  -30.6630  -14.9570 H   0  0  0  0  0
  -42.0210  -29.0930  -15.8490 H   0  0  0  0  0
  -42.0160  -28.2250  -14.2850 H   0  0  0  0  0
  -39.9200  -27.7140  -15.5840 H   0  0  0  0  0
  -39.5410  -29.4630  -15.6070 H   0  0  0  0  0
  -37.5720  -29.0450  -14.4370 H   0  0  0  0  0
  -37.9610  -27.2980  -14.4300 H   0  0  0  0  0
  -36.4100  -27.8660  -12.5280 H   0  0  0  0  0
  -37.6270  -29.0280  -11.9190 H   0  0  0  0  0
  -37.7870  -27.8120   -9.9410 H   0  0  0  0  0
  -36.5640  -26.6630  -10.5610 H   0  0  0  0  0
  -37.9970  -25.5650   -8.8050 H   0  0  0  0  0
  -39.4400  -25.9170   -9.8020 H   0  0  0  0  0
  -39.8700  -23.6360   -9.9720 H   0  0  0  0  0
  -38.4280  -23.3000   -8.9670 H   0  0  0  0  0
  -38.9930  -21.3040  -10.3960 H   0  0  0  0  0
  -38.8160  -22.3300  -11.8510 H   0  0  0  0  0
  -37.0880  -20.9620  -12.5980 H   0  0  0  0  0
  -37.2820  -19.9410  -11.1410 H   0  0  0  0  0
  -34.9560  -19.7080  -12.0800 H   0  0  0  0  0
  -34.7280  -21.4710  -11.8790 H   0  0  0  0  0
  -32.9640  -21.0690  -10.4150 H   0  0  0  0  0
  -33.1990  -19.3090  -10.6320 H   0  0  0  0  0
  -32.0550  -19.7830   -8.4390 H   0  0  0  0  0
  -33.4520  -20.7930   -7.9600 H   0  0  0  0  0
  -33.8500  -19.3730   -6.1580 H   0  0  0  0  0
  -32.4450  -18.3780   -6.6460 H   0  0  0  0  0
  -34.0630  -17.0130   -5.2820 H   0  0  0  0  0
  -35.3360  -17.3670   -6.4880 H   0  0  0  0  0
  -35.5360  -15.0910   -6.9340 H   0  0  0  0  0
  -34.2670  -14.7530   -5.7190 H   0  0  0  0  0
  -34.4050  -12.8790   -7.3970 H   0  0  0  0  0
  -34.0660  -14.0580   -8.7000 H   0  0  0  0  0
  -32.1250  -12.8920   -9.2400 H   0  0  0  0  0
  -32.4820  -11.7180   -7.9380 H   0  0  0  0  0
  -30.0170  -11.7390   -8.4580 H   0  0  0  0  0
  -29.9780  -13.4840   -8.0640 H   0  0  0  0  0
  -28.4660  -13.0540   -6.3470 H   0  0  0  0  0
  -28.5110  -11.3130   -6.7580 H   0  0  0  0  0
  -27.8080  -11.6370   -4.3610 H   0  0  0  0  0
  -29.3480  -12.4960   -4.0550 H   0  0  0  0  0
  -29.9310  -10.8770   -2.4870 H   0  0  0  0  0
  -28.3840  -10.0340   -2.7990 H   0  0  0  0  0
  -30.0930   -8.4300   -1.8760 H   0  0  0  0  0
  -31.1630   -8.8190   -3.2560 H   0  0  0  0  0
  -31.0890   -6.5920   -3.9300 H   0  0  0  0  0
  -30.0260   -6.2180   -2.5410 H   0  0  0  0  0
  -29.7130   -4.5200   -4.3750 H   0  0  0  0  0
  -29.2540   -5.8460   -5.4850 H   0  0  0  0  0
  -27.1570   -4.8750   -5.7670 H   0  0  0  0  0
  -27.6340   -3.5520   -4.6600 H   0  0  0  0  0
  -25.1270   -3.7920   -4.7220 H   0  0  0  0  0
  -25.3040   -5.4870   -4.1750 H   0  0  0  0  0
  -24.0820   -4.9870   -2.2570 H   0  0  0  0  0
  -23.9080   -3.2980   -2.8220 H   0  0  0  0  0
  -23.6620   -3.4230   -0.3180 H   0  0  0  0  0
  -25.2980   -4.1400   -0.2210 H   0  0  0  0  0
  -25.9910   -2.3440    1.0720 H   0  0  0  0  0
  -24.3600   -1.6180    0.9600 H   0  0  0  0  0
  -26.0860    0.1570    1.4210 H   0  0  0  0  0
  -26.9310   -0.3130   -0.0840 H   0  0  0  0  0
  -26.6060    1.8070   -0.9460 H   0  0  0  0  0
  -25.7650    2.2950    0.5560 H   0  0  0  0  0
  -25.0520    3.7540   -1.3690 H   0  0  0  0  0
  -24.4980    2.2910   -2.2370 H   0  0  0  0  0
  -22.3370    3.1110   -2.2700 H   0  0  0  0  0
  -22.8770    4.5830   -1.4090 H   0  0  0  0  0
  -20.4170    4.1940   -1.0370 H   0  0  0  0  0
  -20.8030    2.5920   -0.3410 H   0  0  0  0  0
  -19.8690    3.2260    1.6760 H   0  0  0  0  0
  -19.4690    4.8310    0.9920 H   0  0  0  0  0
  -19.6370    4.9570    3.5020 H   0  0  0  0  0
  -21.3210    4.3630    3.3910 H   0  0  0  0  0
  -22.0900    6.3170    4.3580 H   0  0  0  0  0
  -20.4100    6.9220    4.4820 H   0  0  0  0  0
  -22.0410    8.8410    4.4640 H   0  0  0  0  0
  -22.6440    8.2770    2.8760 H   0  0  0  0  0
  -22.0020   10.2740    1.9060 H   0  0  0  0  0
  -21.4010   10.8550    3.4880 H   0  0  0  0  0
  -20.2450   12.0650    1.6060 H   0  0  0  0  0
  -19.6680   10.4890    0.9850 H   0  0  0  0  0
  -17.4760   11.1620    1.2740 H   0  0  0  0  0
  -18.0370   12.7450    1.8900 H   0  0  0  0  0
  -15.7200   12.2390    2.7380 H   0  0  0  0  0
  -16.3520   10.7430    3.4890 H   0  0  0  0  0
  -15.7380   11.5150    5.5790 H   0  0  0  0  0
  -15.0950   13.0140    4.8420 H   0  0  0  0  0
  -15.6910   13.4030    7.2580 H   0  0  0  0  0
  -17.3720   12.9100    6.8940 H   0  0  0  0  0
  -18.1370   14.9960    7.5300 H   0  0  0  0  0
  -16.4620   15.5020    7.9050 H   0  0  0  0  0
  -16.6310   17.3340    6.2060 H   0  0  0  0  0
  -17.9360   17.4900    7.4210 H   0  0  0  0  0
  -19.2230   18.6710    5.9080 H   0  0  0  0  0
  -17.9250   18.5300    4.6850 H   0  0  0  0  0
  -20.1540   18.8910    3.5690 H   0  0  0  0  0
  -20.7610   17.4080    4.3640 H   0  0  0  0  0
  -21.1420   16.4400    2.3000 H   0  0  0  0  0
  -20.5440   17.9190    1.4900 H   0  0  0  0  0
  -20.3170   15.9250   -0.0320 H   0  0  0  0  0
  -19.2880   15.1360    1.2010 H   0  0  0  0  0
  -17.5240   15.0710   -0.2910 H   0  0  0  0  0
  -18.5420   15.8530   -1.5380 H   0  0  0  0  0
  -16.9370   17.7720   -1.6490 H   0  0  0  0  0
  -16.0890   16.2330   -1.9840 H   0  0  0  0  0
  -14.0860   17.1750   -1.3230 H   0  0  0  0  0
  -14.9180   18.7240   -0.9900 H   0  0  0  0  0
  -12.7950   18.5560    0.3540 H   0  0  0  0  0
  -13.4210   17.0570    1.1040 H   0  0  0  0  0
  -13.3430   18.0490    3.1890 H   0  0  0  0  0
  -12.7090   19.5530    2.4560 H   0  0  0  0  0
  -13.8390   20.0500    4.6520 H   0  0  0  0  0
  -15.3470   19.3380    4.0040 H   0  0  0  0  0
  -16.4310   21.3630    4.2660 H   0  0  0  0  0
  -14.9320   22.0870    4.9220 H   0  0  0  0  0
  -14.9170   23.7550    3.0540 H   0  0  0  0  0
  -16.4580   23.8480    3.9580 H   0  0  0  0  0
  -17.5050   24.7550    2.1080 H   0  0  0  0  0
  -15.9700   24.6750    1.1930 H   0  0  0  0  0
  -17.9360   24.6900   -0.3810 H   0  0  0  0  0
  -18.5490   23.2090    0.4150 H   0  0  0  0  0
  -18.3870   22.0530   -1.5790 H   0  0  0  0  0
  -17.7800   23.5270   -2.3920 H   0  0  0  0  0
  -17.0400   21.4650   -3.6350 H   0  0  0  0  0
  -16.2230   20.8950   -2.1480 H   0  0  0  0  0
  -13.4920   22.2500   -3.7300 H   0  0  0  0  0
  -14.8060   21.8020   -4.8610 H   0  0  0  0  0
  -14.4560   20.7770   -3.4440 H   0  0  0  0  0
  1  2  1  0  0  0
  1105  1  0  0  0
  2  3  1  0  0  0
  2106  1  0  0  0
  2107  1  0  0  0
  3  4  1  0  0  0
  3108  1  0  0  0
  3109  1  0  0  0
  4  5  1  0  0  0
  5  6  1  0  0  0
  5110  1  0  0  0
  5111  1  0  0  0
  6  7  1  0  0  0
  6112  1  0  0  0
  6113  1  0  0  0
  7  8  1  0  0  0
  8  9  1  0  0  0
  8114  1  0  0  0
  8115  1  0  0  0
  9 10  1  0  0  0
  9116  1  0  0  0
  9117  1  0  0  0
 10 11  1  0  0  0
 11 12  1  0  0  0
 11118  1  0  0  0
 11119  1  0  0  0
 12 13  1  0  0  0
 12120  1  0  0  0
 12121  1  0  0  0
 13 14  1  0  0  0
 14 15  1  0  0  0
 14122  1  0  0  0
 14123  1  0  0  0
 15 16  1  0  0  0
 15124  1  0  0  0
 15125  1  0  0  0
 16 17  1  0  0  0
 17 18  1  0  0  0
 17126  1  0  0  0
 17127  1  0  0  0
 18 19  1  0  0  0
 18128  1  0  0  0
 18129  1  0  0  0
 19 20  1  0  0  0
 20 21  1  0  0  0
 20130  1  0  0  0
 20131  1  0  0  0
 21 22  1  0  0  0
 21132  1  0  0  0
 21133  1  0  0  0
 22 23  1  0  0  0
 23 24  1  0  0  0
 23134  1  0  0  0
 23135  1  0  0  0
 24 25  1  0  0  0
 24136  1  0  0  0
 24137  1  0  0  0
 25 26  1  0  0  0
 26 27  1  0  0  0
 26138  1  0  0  0
 26139  1  0  0  0
 27 28  1  0  0  0
 27140  1  0  0  0
 27141  1  0  0  0
 28 29  1  0  0  0
 29 30  1  0  0  0
 29142  1  0  0  0
 29143  1  0  0  0
 30 31  1  0  0  0
 30144  1  0  0  0
 30145  1  0  0  0
 31 32  1  0  0  0
 32 33  1  0  0  0
 32146  1  0  0  0
 32147  1  0  0  0
 33 34  1  0  0  0
 33148  1  0  0  0
 33149  1  0  0  0
 34 35  1  0  0  0
 35 36  1  0  0  0
 35150  1  0  0  0
 35151  1  0  0  0
 36 37  1  0  0  0
 36152  1  0  0  0
 36153  1  0  0  0
 37 38  1  0  0  0
 38 39  1  0  0  0
 38154  1  0  0  0
 38155  1  0  0  0
 39 40  1  0  0  0
 39156  1  0  0  0
 39157  1  0  0  0
 40 41  1  0  0  0
 41 42  1  0  0  0
 41158  1  0  0  0
 41159  1  0  0  0
 42 43  1  0  0  0
 42160  1  0  0  0
 42161  1  0  0  0
 43 44  1  0  0  0
 44 45  1  0  0  0
 44162  1  0  0  0
 44163  1  0  0  0
 45 46  1  0  0  0
 45164  1  0  0  0
 45165  1  0  0  0
 46 47  1  0  0  0
 47 48  1  0  0  0
 47166  1  0  0  0
 47167  1  0  0  0
 48 49  1  0  0  0
 48168  1  0  0  0
 48169  1  0  0  0
 49 50  1  0  0  0
 50 51  1  0  0  0
 50170  1  0  0  0
 50171  1  0  0  0
 51 52  1  0  0  0
 51172  1  0  0  0
 51173  1  0  0  0
 52 53  1  0  0  0
 53 54  1  0  0  0
 53174  1  0  0  0
 53175  1  0  0  0
 54 55  1  0  0  0
 54176  1  0  0  0
 54177  1  0  0  0
 55 56  1  0  0  0
 56 57  1  0  0  0
 56178  1  0  0  0
 56179  1  0  0  0
 57 58  1  0  0  0
 57180  1  0  0  0
 57181  1  0  0  0
 58 59  1  0  0  0
 59 60  1  0  0  0
 59182  1  0  0  0
 59183  1  0  0  0
 60 61  1  0  0  0
 60184  1  0  0  0
 60185  1  0  0  0
 61 62  1  0  0  0
 62 63  1  0  0  0
 62186  1  0  0  0
 62187  1  0  0  0
 63 64  1  0  0  0
 63188  1  0  0  0
 63189  1  0  0  0
 64 65  1  0  0  0
 65 66  1  0  0  0
 65190  1  0  0  0
 65191  1  0  0  0
 66 67  1  0  0  0
 66192  1  0  0  0
 66193  1  0  0  0
 67 68  1  0  0  0
 68 69  1  0  0  0
 68194  1  0  0  0
 68195  1  0  0  0
 69 70  1  0  0  0
 69196  1  0  0  0
 69197  1  0  0  0
 70 71  1  0  0  0
 71 72  1  0  0  0
 71198  1  0  0  0
 71199  1  0  0  0
 72 73  1  0  0  0
 72200  1  0  0  0
 72201  1  0  0  0
 73 74  1  0  0  0
 74 75  1  0  0  0
 74202  1  0  0  0
 74203  1  0  0  0
 75 76  1  0  0  0
 75204  1  0  0  0
 75205  1  0  0  0
 76 77  1  0  0  0
 77 78  1  0  0  0
 77206  1  0  0  0
 77207  1  0  0  0
 78 79  1  0  0  0
 78208  1  0  0  0
 78209  1  0  0  0
 79 80  1  0  0  0
 80 81  1  0  0  0
 80210  1  0  0  0
 80211  1  0  0  0
 81 82  1  0  0  0
 81212  1  0  0  0
 81213  1  0  0  0
 82 83  1  0  0  0
 83 84  1  0  0  0
 83214  1  0  0  0
 83215  1  0  0  0
 84 85  1  0  0  0
 84216  1  0  0  0
 84217  1  0  0  0
 85 86  1  0  0  0
 86 87  1  0  0  0
 86218  1  0  0  0
 86219  1  0  0  0
 87 88  1  0  0  0
 87220  1  0  0  0
 87221  1  0  0  0
 88 89  1  0  0  0
 89 90  1  0  0  0
 89222  1  0  0  0
 89223  1  0  0  0
 90 91  1  0  0  0
 90224  1  0  0  0
 90225  1  0  0  0
 91 92  1  0  0  0
 92 93  1  0  0  0
 92226  1  0  0  0
 92227  1  0  0  0
 93 94  1  0  0  0
 93228  1  0  0  0
 93229  1  0  0  0
 94 95  1  0  0  0
 95 96  1  0  0  0
 95230  1  0  0  0
 95231  1  0  0  0
 96 97  1  0  0  0
 96232  1  0  0  0
 96233  1  0  0  0
 97 98  1  0  0  0
 98 99  1  0  0  0
 98234  1  0  0  0
 98235  1  0  0  0
 99100  1  0  0  0
 99236  1  0  0  0
 99237  1  0  0  0
100101  1  0  0  0
101102  1  0  0  0
101238  1  0  0  0
101239  1  0  0  0
102103  1  0  0  0
102240  1  0  0  0
102241  1  0  0  0
103104  1  0  0  0
104242  1  0  0  0
104243  1  0  0  0
104244  1  0  0  0
M  END
$$$$
