16G
  CCTOOLS-0919241032

 35 35  0  0  1  0  0  0  0  0999 V2000
    1.5260    1.0210   -0.2720 C   0  0  0  0  0
    2.4800   -0.0660    0.2290 C   0  0  0  0  0
    1.9740   -1.4340   -0.2390 C   0  0  0  0  0
    0.5430   -1.6380    0.2670 C   0  0  0  0  0
   -0.3360   -0.4900   -0.2360 C   0  0  0  0  0
   -1.7540   -0.6550    0.3150 C   0  0  0  0  0
    4.6610    1.0170    0.3180 C   0  0  0  0  0
    6.0400    1.2620   -0.2380 C   0  0  0  0  0
    3.8200    0.1720   -0.3110 N   0  0  0  0  0
    1.5190    1.0270   -1.7010 O   0  0  0  0  0
    2.8180   -2.4610    0.2860 O   0  0  0  0  0
    0.0350   -2.8800   -0.2250 O   0  0  0  0  0
    0.2070    0.7540    0.2090 O   0  0  0  0  0
   -2.6020    0.3490   -0.2460 O   0  0  0  0  0
    4.3070    1.5810    1.3320 O   0  0  0  0  0
   -4.1670    0.4760    0.1130 P   0  0  0  0  0
   -4.3290    0.5860    1.5800 O   0  0  0  0  0
   -4.7750    1.7880   -0.5940 O   0  0  0  0  0
   -4.9460   -0.8300   -0.4160 O   0  0  0  0  0
    1.8570    1.9930    0.0940 H   0  0  0  0  0
    2.5160   -0.0450    1.3190 H   0  0  0  0  0
    1.9850   -1.4730   -1.3280 H   0  0  0  0  0
    0.5400   -1.6480    1.3570 H   0  0  0  0  0
   -0.3660   -0.5050   -1.3250 H   0  0  0  0  0
   -2.1340   -1.6410    0.0520 H   0  0  0  0  0
   -1.7370   -0.5500    1.4000 H   0  0  0  0  0
    6.0080    2.1010   -0.9330 H   0  0  0  0  0
    6.7250    1.4920    0.5780 H   0  0  0  0  0
    6.3840    0.3700   -0.7610 H   0  0  0  0  0
    4.1040   -0.2790   -1.1220 H   0  0  0  0  0
    0.9350    1.6930   -2.0890 H   0  0  0  0  0
    2.5560   -3.3550    0.0290 H   0  0  0  0  0
   -0.8690   -3.0740    0.0580 H   0  0  0  0  0
   -5.7160    1.9280   -0.4210 H   0  0  0  0  0
   -4.8830   -0.9650   -1.3720 H   0  0  0  0  0
  1  2  1  0  0  0
  1 10  1  0  0  0
  1 13  1  0  0  0
  1 20  1  0  0  0
  2  3  1  0  0  0
  2  9  1  0  0  0
  2 21  1  0  0  0
  3  4  1  0  0  0
  3 11  1  0  0  0
  3 22  1  0  0  0
  4  5  1  0  0  0
  4 12  1  0  0  0
  4 23  1  0  0  0
  5  6  1  0  0  0
  5 13  1  0  0  0
  5 24  1  0  0  0
  6 14  1  0  0  0
  6 25  1  0  0  0
  6 26  1  0  0  0
  7  8  1  0  0  0
  7  9  1  0  0  0
  7 15  2  0  0  0
  8 27  1  0  0  0
  8 28  1  0  0  0
  8 29  1  0  0  0
  9 30  1  0  0  0
 10 31  1  0  0  0
 11 32  1  0  0  0
 12 33  1  0  0  0
 14 16  1  0  0  0
 16 17  2  0  0  0
 16 18  1  0  0  0
 16 19  1  0  0  0
 18 34  1  0  0  0
 19 35  1  0  0  0
M  END
$$$$
