18Q
  CCTOOLS-0919241033

 47 49  0  0  1  0  0  0  0  0999 V2000
    6.3340    1.8980    0.1680 P   0  0  0  0  0
    0.3520   -1.1260    0.1450 N   0  0  0  0  0
    0.3490   -0.7380   -1.1400 C   0  0  0  0  0
    1.3950   -0.7420   -1.7580 O   0  0  0  0  0
   -0.7750   -0.3470   -1.7650 N   0  0  0  0  0
   -1.9540   -0.3320   -1.1080 C   0  0  0  0  0
   -2.9740    0.0210   -1.6690 O   0  0  0  0  0
   -1.9770   -0.7520    0.3020 C   0  0  0  0  0
   -0.7870   -1.1430    0.8850 C   0  0  0  0  0
    1.6120   -1.5460    0.7630 C   0  0  0  0  0
    2.1300   -2.8260    0.0780 C   0  0  0  0  0
   -3.2320   -0.7550    1.0690 C   0  0  0  0  0
   -3.2520   -1.2020    2.2010 O   0  0  0  0  0
   -4.3600   -0.2640    0.5190 N   0  0  0  0  0
   -5.5820   -0.1640    1.3200 C   0  0  0  0  0
   -6.6900    0.4130    0.4760 C   0  0  0  0  0
   -7.0530    2.1260    0.3140 S   0  0  0  0  0
   -8.3840    1.7710   -0.7800 C   0  0  0  0  0
   -8.4790    0.4520   -0.9550 C   0  0  0  0  0
   -7.5410   -0.2970   -0.2660 C   0  0  0  0  0
    3.5290   -2.4320   -0.4550 C   0  0  0  0  0
    4.4690   -3.4890   -0.2510 O   0  0  0  0  0
    3.8780   -1.2050    0.4240 C   0  0  0  0  0
    2.6100   -0.5270    0.5800 O   0  0  0  0  0
    4.8870   -0.3020   -0.2870 C   0  0  0  0  0
    5.2790    0.7570    0.5890 O   0  0  0  0  0
    6.6360    2.8440    1.4350 O   0  0  0  0  0
    7.5920    1.2640   -0.2860 O   0  0  0  0  0
    5.7180    2.7840   -1.0280 O   0  0  0  0  0
   -0.7380   -0.0740   -2.6950 H   0  0  0  0  0
   -0.7630   -1.4580    1.9170 H   0  0  0  0  0
    1.4610   -1.7300    1.8260 H   0  0  0  0  0
    2.2120   -3.6390    0.8000 H   0  0  0  0  0
    1.4730   -3.1120   -0.7430 H   0  0  0  0  0
   -4.3620    0.0240   -0.4070 H   0  0  0  0  0
   -5.8700   -1.1560    1.6680 H   0  0  0  0  0
   -5.4030    0.4850    2.1770 H   0  0  0  0  0
   -9.0260    2.5080   -1.2390 H   0  0  0  0  0
   -9.2280    0.0020   -1.5900 H   0  0  0  0  0
   -7.5030   -1.3750   -0.3220 H   0  0  0  0  0
    3.4800   -2.1550   -1.5080 H   0  0  0  0  0
    4.2440   -4.3100   -0.7110 H   0  0  0  0  0
    4.2650   -1.5230    1.3920 H   0  0  0  0  0
    5.7640   -0.8860   -0.5660 H   0  0  0  0  0
    4.4310    0.1180   -1.1830 H   0  0  0  0  0
    7.2650    3.5560    1.2540 H   0  0  0  0  0
    4.8910    3.2300   -0.8010 H   0  0  0  0  0
  1 29  1  0  0  0
  1 27  1  0  0  0
  2  3  1  0  0  0
  2  9  1  0  0  0
  3  5  1  0  0  0
  4  3  2  0  0  0
  5  6  1  0  0  0
  5 30  1  0  0  0
  6  7  2  0  0  0
  8  6  1  0  0  0
  8 12  1  0  0  0
  9  8  2  0  0  0
  9 31  1  0  0  0
 10  2  1  0  0  0
 10 32  1  0  0  0
 11 10  1  0  0  0
 11 33  1  0  0  0
 11 34  1  0  0  0
 12 14  1  0  0  0
 13 12  2  0  0  0
 14 15  1  0  0  0
 14 35  1  0  0  0
 15 16  1  0  0  0
 15 36  1  0  0  0
 15 37  1  0  0  0
 16 20  2  0  0  0
 17 16  1  0  0  0
 17 18  1  0  0  0
 18 19  2  0  0  0
 18 38  1  0  0  0
 19 20  1  0  0  0
 19 39  1  0  0  0
 20 40  1  0  0  0
 21 11  1  0  0  0
 21 23  1  0  0  0
 21 41  1  0  0  0
 22 21  1  0  0  0
 22 42  1  0  0  0
 23 25  1  0  0  0
 23 24  1  0  0  0
 23 43  1  0  0  0
 24 10  1  0  0  0
 25 26  1  0  0  0
 25 44  1  0  0  0
 25 45  1  0  0  0
 26  1  1  0  0  0
 27 46  1  0  0  0
 28  1  2  0  0  0
 29 47  1  0  0  0
M  END
$$$$
