196
  CCTOOLS-0919241033

 31 33  0  0  0  0  0  0  0  0999 V2000
   -4.6050   -0.1910   -0.2470 C   0  0  0  0  0
   -3.9310    0.8380    0.4000 C   0  0  0  0  0
   -2.5510    0.8310    0.4590 C   0  0  0  0  0
   -1.8350   -0.2040   -0.1410 C   0  0  0  0  0
   -2.5150   -1.2340   -0.7890 C   0  0  0  0  0
   -3.8940   -1.2250   -0.8390 C   0  0  0  0  0
   -5.9630   -0.1850   -0.2980 O   0  0  0  0  0
   -4.6260    1.8420    0.9770 F   0  0  0  0  0
   -0.3530   -0.2110   -0.0860 C   0  0  0  0  0
    0.3360    0.9770   -0.2430 C   0  0  0  0  0
    1.7380    0.9990   -0.1940 C   0  0  0  0  0
    2.4490   -0.2090    0.0170 C   0  0  0  0  0
    1.7030   -1.4560    0.1810 C   0  0  0  0  0
    0.3180   -1.4210    0.1250 C   0  0  0  0  0
    2.4510    2.2020   -0.3530 C   0  0  0  0  0
    3.8090    2.1950   -0.3030 C   0  0  0  0  0
    4.5150    1.0060   -0.0940 C   0  0  0  0  0
    3.8470   -0.1900    0.0600 C   0  0  0  0  0
    2.3910   -2.6930    0.3960 C   0  0  0  0  0
    2.9370   -3.6740    0.5670 N   0  0  0  0  0
    5.8720    1.0290   -0.0480 O   0  0  0  0  0
   -2.0270    1.6300    0.9610 H   0  0  0  0  0
   -1.9630   -2.0390   -1.2510 H   0  0  0  0  0
   -4.4200   -2.0230   -1.3410 H   0  0  0  0  0
   -6.2750   -0.6610    0.4840 H   0  0  0  0  0
   -0.2090    1.8950   -0.4030 H   0  0  0  0  0
   -0.2470   -2.3330    0.2450 H   0  0  0  0  0
    1.9200    3.1280   -0.5140 H   0  0  0  0  0
    4.3510    3.1210   -0.4250 H   0  0  0  0  0
    4.3990   -1.1050    0.2160 H   0  0  0  0  0
    6.1180    1.1740    0.8760 H   0  0  0  0  0
  1  2  1  0  0  0
  1  6  2  0  0  0
  1  7  1  0  0  0
  2  3  2  0  0  0
  2  8  1  0  0  0
  3  4  1  0  0  0
  3 22  1  0  0  0
  4  5  2  0  0  0
  4  9  1  0  0  0
  5  6  1  0  0  0
  5 23  1  0  0  0
  6 24  1  0  0  0
  7 25  1  0  0  0
  9 10  2  0  0  0
  9 14  1  0  0  0
 10 11  1  0  0  0
 10 26  1  0  0  0
 11 12  1  0  0  0
 11 15  2  0  0  0
 12 13  1  0  0  0
 12 18  2  0  0  0
 13 14  2  0  0  0
 13 19  1  0  0  0
 14 27  1  0  0  0
 15 16  1  0  0  0
 15 28  1  0  0  0
 16 17  2  0  0  0
 16 29  1  0  0  0
 17 18  1  0  0  0
 17 21  1  0  0  0
 18 30  1  0  0  0
 19 20  3  0  0  0
 21 31  1  0  0  0
M  END
$$$$
