1B0
  CCTOOLS-0919241033

 59 62  0  0  1  0  0  0  0  0999 V2000
   -1.2540   -0.2910    0.5320 O   0  0  0  0  0
   -0.9630   -0.0830   -0.6270 C   0  0  0  0  0
    0.2990   -0.2880   -1.0530 N   0  0  0  0  0
    1.3430   -0.6620   -0.0950 C   0  0  0  0  0
    2.5760    0.1660   -0.3480 C   0  0  0  0  0
    3.6720   -0.0060    0.4170 N   0  0  0  0  0
    4.7890    0.8170    0.2350 C   0  0  0  0  0
    4.7160    2.1680    0.5460 C   0  0  0  0  0
    5.8210    2.9780    0.3650 C   0  0  0  0  0
    6.9980    2.4440   -0.1260 C   0  0  0  0  0
    7.0740    1.0980   -0.4370 C   0  0  0  0  0
    5.9750    0.2820   -0.2530 C   0  0  0  0  0
    3.6940   -1.0540    1.4400 C   0  0  0  0  0
    2.5820    0.9880   -1.2400 O   0  0  0  0  0
    1.6810   -2.1450   -0.2620 C   0  0  0  0  0
    0.4780   -2.9780    0.0980 C   0  0  0  0  0
   -0.3780   -3.4200   -0.8930 C   0  0  0  0  0
   -1.4820   -4.1840   -0.5630 C   0  0  0  0  0
   -1.7280   -4.5070    0.7580 C   0  0  0  0  0
   -0.8710   -4.0660    1.7490 C   0  0  0  0  0
    0.2340   -3.3050    1.4180 C   0  0  0  0  0
   -2.0150    0.4000   -1.5930 C   0  0  0  0  0
   -3.3080    0.6290   -0.8540 C   0  0  0  0  0
   -3.7400    1.8770   -0.2190 C   0  0  0  0  0
   -3.1730    3.1460   -0.0880 C   0  0  0  0  0
   -3.8490    4.1250    0.5830 C   0  0  0  0  0
   -5.0960    3.8680    1.1370 C   0  0  0  0  0
   -5.6740    2.6230    1.0200 C   0  0  0  0  0
   -5.0030    1.6120    0.3400 C   0  0  0  0  0
   -5.3040    0.2980    0.0580 N   0  0  0  0  0
   -4.2860   -0.2690   -0.6590 C   0  0  0  0  0
   -4.2640   -1.6930   -1.1520 C   0  0  0  0  0
    0.5160   -0.1890   -1.9930 H   0  0  0  0  0
   -1.6870    1.3340   -2.0500 H   0  0  0  0  0
   -2.1680   -0.3500   -2.3690 H   0  0  0  0  0
    0.9870   -0.4820    0.9190 H   0  0  0  0  0
    1.9610   -2.3390   -1.2980 H   0  0  0  0  0
    2.5120   -2.4040    0.3940 H   0  0  0  0  0
    4.0760   -1.9780    1.0050 H   0  0  0  0  0
    4.3390   -0.7460    2.2630 H   0  0  0  0  0
    2.6830   -1.2190    1.8130 H   0  0  0  0  0
    3.7970    2.5860    0.9280 H   0  0  0  0  0
    6.0360   -0.7690   -0.4920 H   0  0  0  0  0
    5.7650    4.0290    0.6060 H   0  0  0  0  0
    7.8600    3.0790   -0.2670 H   0  0  0  0  0
    7.9950    0.6840   -0.8200 H   0  0  0  0  0
   -0.1860   -3.1670   -1.9260 H   0  0  0  0  0
    0.9060   -2.9640    2.1920 H   0  0  0  0  0
   -2.1510   -4.5280   -1.3370 H   0  0  0  0  0
   -2.5910   -5.1040    1.0160 H   0  0  0  0  0
   -1.0640   -4.3180    2.7810 H   0  0  0  0  0
   -2.2030    3.3530   -0.5160 H   0  0  0  0  0
   -3.4100    5.1070    0.6840 H   0  0  0  0  0
   -5.6180    4.6530    1.6650 H   0  0  0  0  0
   -6.6440    2.4340    1.4540 H   0  0  0  0  0
   -6.1190   -0.1570    0.3250 H   0  0  0  0  0
   -3.8820   -2.3440   -0.3660 H   0  0  0  0  0
   -5.2750   -2.0000   -1.4200 H   0  0  0  0  0
   -3.6190   -1.7640   -2.0280 H   0  0  0  0  0
  1  2  2  0  0  0
  2  3  1  0  0  0
  2 22  1  0  0  0
  3  4  1  0  0  0
  3 33  1  0  0  0
  4  5  1  0  0  0
  4 15  1  0  0  0
  4 36  1  0  0  0
  5  6  1  0  0  0
  5 14  2  0  0  0
  6  7  1  0  0  0
  6 13  1  0  0  0
  7  8  1  0  0  0
  7 12  2  0  0  0
  8  9  2  0  0  0
  8 42  1  0  0  0
  9 10  1  0  0  0
  9 44  1  0  0  0
 10 11  2  0  0  0
 10 45  1  0  0  0
 11 12  1  0  0  0
 11 46  1  0  0  0
 12 43  1  0  0  0
 13 39  1  0  0  0
 13 40  1  0  0  0
 13 41  1  0  0  0
 15 16  1  0  0  0
 15 37  1  0  0  0
 15 38  1  0  0  0
 16 17  1  0  0  0
 16 21  2  0  0  0
 17 18  2  0  0  0
 17 47  1  0  0  0
 18 19  1  0  0  0
 18 49  1  0  0  0
 19 20  2  0  0  0
 19 50  1  0  0  0
 20 21  1  0  0  0
 20 51  1  0  0  0
 21 48  1  0  0  0
 22 23  1  0  0  0
 22 34  1  0  0  0
 22 35  1  0  0  0
 23 24  1  0  0  0
 23 31  2  0  0  0
 24 25  1  0  0  0
 24 29  2  0  0  0
 25 26  2  0  0  0
 25 52  1  0  0  0
 26 27  1  0  0  0
 26 53  1  0  0  0
 27 28  2  0  0  0
 27 54  1  0  0  0
 28 29  1  0  0  0
 28 55  1  0  0  0
 29 30  1  0  0  0
 30 31  1  0  0  0
 30 56  1  0  0  0
 31 32  1  0  0  0
 32 57  1  0  0  0
 32 58  1  0  0  0
 32 59  1  0  0  0
M  END
$$$$
