1C5
  CCTOOLS-0919241033

 80 81  0  0  1  0  0  0  0  0999 V2000
   -0.8390    2.1260   10.2740 C   0  0  0  0  0
    0.4840    1.9600    9.5240 C   0  0  0  0  0
    0.2100    1.8500    8.0230 C   0  0  0  0  0
   -0.6830    0.6370    7.7550 C   0  0  0  0  0
   -2.0060    0.8030    8.5050 C   0  0  0  0  0
   -1.7320    0.9130   10.0060 C   0  0  0  0  0
   -0.9570    0.5270    6.2540 C   0  0  0  0  0
   -1.8500   -0.6850    5.9870 C   0  0  0  0  0
   -2.1240   -0.7950    4.4850 C   0  0  0  0  0
   -3.0040   -1.9900    4.2220 C   0  0  0  0  0
   -0.7310   -0.4860    2.5100 C   0  0  0  0  0
    0.5720   -0.6500    1.7720 C   0  0  0  0  0
    1.6870    0.0570    2.5440 C   0  0  0  0  0
    3.0100   -0.1080    1.7950 C   0  0  0  0  0
    4.1090    0.5890    2.5540 C   0  0  0  0  0
    1.1720   -0.5650   -0.5870 C   0  0  0  0  0
    1.0500    0.0380   -1.9620 C   0  0  0  0  0
   -0.0640   -0.6690   -2.7330 C   0  0  0  0  0
   -0.1860   -0.0650   -4.1080 C   0  0  0  0  0
    0.5510   -0.5810   -5.1570 C   0  0  0  0  0
    0.4420   -0.0290   -6.4190 C   0  0  0  0  0
   -0.4090    1.0440   -6.6330 C   0  0  0  0  0
   -1.1490    1.5600   -5.5790 C   0  0  0  0  0
   -1.0400    1.0010   -4.3200 C   0  0  0  0  0
    2.8120   -1.3530   -2.9080 C   0  0  0  0  0
    4.1160   -1.5170   -3.6460 C   0  0  0  0  0
   -2.4510   -3.1950    3.9800 N   0  0  0  0  0
   -0.8570   -0.9550    3.7680 N   0  0  0  0  0
    0.4530   -0.0630    0.4360 N   0  0  0  0  0
    2.3180   -0.1200   -2.6790 N   0  0  0  0  0
   -4.2110   -1.8670    4.2270 O   0  0  0  0  0
   -1.6670    0.0660    1.9730 O   0  0  0  0  0
    3.8590    1.1600    3.5890 O   0  0  0  0  0
    5.3650    0.5750    2.0820 O   0  0  0  0  0
    1.9170   -1.5040   -0.4010 O   0  0  0  0  0
    2.2080   -2.3300   -2.5200 O   0  0  0  0  0
   -0.5190    1.5890   -7.8730 O   0  0  0  0  0
   -2.9640    0.9630   -7.8650 O   0  0  0  0  0
   -1.8900    1.3980  -10.1080 O   0  0  0  0  0
   -1.3330   -0.7620   -8.7180 O   0  0  0  0  0
   -1.7040    0.8000   -8.6240 P   0  0  0  0  0
   -0.6430    2.2050   11.3430 H   0  0  0  0  0
   -1.3410    3.0300    9.9290 H   0  0  0  0  0
    0.9860    1.0560    9.8690 H   0  0  0  0  0
    1.1200    2.8240    9.7150 H   0  0  0  0  0
    1.1530    1.7310    7.4890 H   0  0  0  0  0
   -0.2910    2.7540    7.6780 H   0  0  0  0  0
   -0.1810   -0.2660    8.1000 H   0  0  0  0  0
   -2.5080    1.7070    8.1600 H   0  0  0  0  0
   -2.6430   -0.0600    8.3140 H   0  0  0  0  0
   -1.2300    0.0090   10.3510 H   0  0  0  0  0
   -2.6750    1.0320   10.5400 H   0  0  0  0  0
   -0.0140    0.4080    5.7200 H   0  0  0  0  0
   -1.4590    1.4310    5.9090 H   0  0  0  0  0
   -2.7930   -0.5670    6.5200 H   0  0  0  0  0
   -1.3490   -1.5890    6.3320 H   0  0  0  0  0
   -2.6260    0.1080    4.1400 H   0  0  0  0  0
    0.8080   -1.7110    1.6830 H   0  0  0  0  0
    1.4500    1.1180    2.6330 H   0  0  0  0  0
    1.7750   -0.3790    3.5380 H   0  0  0  0  0
    3.2470   -1.1680    1.7060 H   0  0  0  0  0
    2.9220    0.3280    0.8000 H   0  0  0  0  0
    0.8140    1.0990   -1.8730 H   0  0  0  0  0
    0.1710   -1.7300   -2.8220 H   0  0  0  0  0
   -1.0070   -0.5510   -2.2000 H   0  0  0  0  0
    1.2140   -1.4170   -4.9900 H   0  0  0  0  0
    1.0190   -0.4320   -7.2370 H   0  0  0  0  0
   -1.8130    2.3970   -5.7430 H   0  0  0  0  0
   -1.6160    1.4020   -3.5000 H   0  0  0  0  0
    4.3520   -2.5770   -3.7350 H   0  0  0  0  0
    4.0280   -1.0790   -4.6410 H   0  0  0  0  0
    4.9100   -1.0120   -3.0960 H   0  0  0  0  0
   -3.0170   -3.9640    3.8100 H   0  0  0  0  0
   -1.4860   -3.2930    3.9760 H   0  0  0  0  0
   -0.1090   -1.3970    4.1980 H   0  0  0  0  0
   -0.1420    0.6870    0.2870 H   0  0  0  0  0
    2.8010    0.6610   -2.9900 H   0  0  0  0  0
    6.0700    1.0230    2.5690 H   0  0  0  0  0
   -2.6080    0.8990  -10.5220 H   0  0  0  0  0
   -0.5080   -0.8240   -9.2190 H   0  0  0  0  0
  1  2  1  0  0  0
  1  6  1  0  0  0
  1 42  1  0  0  0
  1 43  1  0  0  0
  2  3  1  0  0  0
  2 44  1  0  0  0
  2 45  1  0  0  0
  3  4  1  0  0  0
  3 46  1  0  0  0
  3 47  1  0  0  0
  4  5  1  0  0  0
  4  7  1  0  0  0
  4 48  1  0  0  0
  5  6  1  0  0  0
  5 49  1  0  0  0
  5 50  1  0  0  0
  6 51  1  0  0  0
  6 52  1  0  0  0
  7  8  1  0  0  0
  7 53  1  0  0  0
  7 54  1  0  0  0
  8  9  1  0  0  0
  8 55  1  0  0  0
  8 56  1  0  0  0
  9 10  1  0  0  0
  9 28  1  0  0  0
  9 57  1  0  0  0
 10 27  1  0  0  0
 10 31  2  0  0  0
 11 12  1  0  0  0
 11 28  1  0  0  0
 11 32  2  0  0  0
 12 13  1  0  0  0
 12 29  1  0  0  0
 12 58  1  0  0  0
 13 14  1  0  0  0
 13 59  1  0  0  0
 13 60  1  0  0  0
 14 15  1  0  0  0
 14 61  1  0  0  0
 14 62  1  0  0  0
 15 33  2  0  0  0
 15 34  1  0  0  0
 16 17  1  0  0  0
 16 29  1  0  0  0
 16 35  2  0  0  0
 17 18  1  0  0  0
 17 30  1  0  0  0
 17 63  1  0  0  0
 18 19  1  0  0  0
 18 64  1  0  0  0
 18 65  1  0  0  0
 19 20  2  0  0  0
 19 24  1  0  0  0
 20 21  1  0  0  0
 20 66  1  0  0  0
 21 22  2  0  0  0
 21 67  1  0  0  0
 22 23  1  0  0  0
 22 37  1  0  0  0
 23 24  2  0  0  0
 23 68  1  0  0  0
 24 69  1  0  0  0
 25 26  1  0  0  0
 25 30  1  0  0  0
 25 36  2  0  0  0
 26 70  1  0  0  0
 26 71  1  0  0  0
 26 72  1  0  0  0
 27 73  1  0  0  0
 27 74  1  0  0  0
 28 75  1  0  0  0
 29 76  1  0  0  0
 30 77  1  0  0  0
 34 78  1  0  0  0
 37 41  1  0  0  0
 38 41  2  0  0  0
 39 41  1  0  0  0
 39 79  1  0  0  0
 40 41  1  0  0  0
 40 80  1  0  0  0
M  END
$$$$
