1CO
  CCTOOLS-0919241033

 22 21  0  0  1  0  0  0  0  0999 V2000
    1.1230   -0.5930   -0.0370 C   0  0  0  0  0
   -0.3380    1.0140    1.1990 C   0  0  0  0  0
   -2.6910   -0.2560    0.0310 C   0  0  0  0  0
   -1.3500   -0.9440    0.0220 C   0  0  0  0  0
   -0.2380    0.1060   -0.0290 C   0  0  0  0  0
    2.2350    0.4560    0.0380 C   0  0  0  0  0
   -3.8180   -0.9830    0.0730 O   0  0  0  0  0
   -2.7510    0.9510   -0.0010 O   0  0  0  0  0
   -0.3780    0.8910   -1.2140 O   0  0  0  0  0
    3.8490   -0.3730    0.0270 S   0  0  0  0  0
    1.1940   -1.2600    0.8220 H   0  0  0  0  0
    1.2290   -1.1700   -0.9560 H   0  0  0  0  0
    0.4540    1.7620    1.1630 H   0  0  0  0  0
   -1.3070    1.5120    1.2050 H   0  0  0  0  0
   -0.2310    0.4150    2.1030 H   0  0  0  0  0
   -1.2430   -1.5430    0.9270 H   0  0  0  0  0
   -1.2790   -1.5910   -0.8530 H   0  0  0  0  0
    2.1640    1.1230   -0.8210 H   0  0  0  0  0
    2.1290    1.0330    0.9560 H   0  0  0  0  0
   -4.6540   -0.4970    0.0770 H   0  0  0  0  0
   -0.3250    0.3800   -2.0330 H   0  0  0  0  0
    4.7160    0.6530    0.0970 H   0  0  0  0  0
  1  5  1  0  0  0
  1  6  1  0  0  0
  1 11  1  0  0  0
  1 12  1  0  0  0
  2 13  1  0  0  0
  2 14  1  0  0  0
  2 15  1  0  0  0
  3  7  1  0  0  0
  4  3  1  0  0  0
  4  5  1  0  0  0
  4 16  1  0  0  0
  4 17  1  0  0  0
  5  9  1  0  0  0
  5  2  1  0  0  0
  6 18  1  0  0  0
  6 19  1  0  0  0
  7 20  1  0  0  0
  8  3  2  0  0  0
  9 21  1  0  0  0
 10  6  1  0  0  0
 10 22  1  0  0  0
M  END
$$$$
