1CY
  CCTOOLS-0919241033

 31 32  0  0  0  0  0  0  0  0999 V2000
   -2.9500    0.8640    0.6660 N   0  0  0  0  0
   -3.4700   -0.3280    0.5380 C   0  0  0  0  0
   -2.8870   -1.2840   -0.2050 N   0  0  0  0  0
   -1.6440   -1.1480   -0.6300 C   0  0  0  0  0
   -0.9470   -0.0170   -0.2740 N   0  0  0  0  0
   -1.7170    1.2160   -0.0470 C   0  0  0  0  0
   -4.6560   -0.6140    1.1850 N   0  0  0  0  0
   -1.0630   -2.1120   -1.4060 N   0  0  0  0  0
   -0.8930    2.1910    0.7960 C   0  0  0  0  0
   -2.0650    1.8610   -1.3900 C   0  0  0  0  0
    0.4450   -0.0380   -0.1330 C   0  0  0  0  0
    1.0270   -0.7430    0.9120 C   0  0  0  0  0
    2.4010   -0.7620    1.0500 C   0  0  0  0  0
    3.1980   -0.0790    0.1470 C   0  0  0  0  0
    2.6200    0.6240   -0.8950 C   0  0  0  0  0
    1.2470    0.6420   -1.0400 C   0  0  0  0  0
    4.9250   -0.1050    0.3230 CL  0  0  0  0  0
   -5.0890    0.0650    1.7250 H   0  0  0  0  0
   -5.0550   -1.4940    1.1000 H   0  0  0  0  0
   -1.5350   -2.9400   -1.5860 H   0  0  0  0  0
   -0.1790   -1.9670   -1.7780 H   0  0  0  0  0
   -0.0220    2.5150    0.2280 H   0  0  0  0  0
   -1.5040    3.0570    1.0510 H   0  0  0  0  0
   -0.5670    1.6950    1.7100 H   0  0  0  0  0
   -2.6610    1.1670   -1.9840 H   0  0  0  0  0
   -2.6360    2.7730   -1.2180 H   0  0  0  0  0
   -1.1470    2.1020   -1.9260 H   0  0  0  0  0
    0.4060   -1.2760    1.6170 H   0  0  0  0  0
    2.8550   -1.3100    1.8630 H   0  0  0  0  0
    3.2440    1.1570   -1.5970 H   0  0  0  0  0
    0.7970    1.1910   -1.8540 H   0  0  0  0  0
  2  1  2  0  0  0
  2  7  1  0  0  0
  3  2  1  0  0  0
  4  3  2  0  0  0
  4  5  1  0  0  0
  5  6  1  0  0  0
  6  1  1  0  0  0
  6 10  1  0  0  0
  6  9  1  0  0  0
  7 18  1  0  0  0
  7 19  1  0  0  0
  8  4  1  0  0  0
  8 20  1  0  0  0
  8 21  1  0  0  0
  9 22  1  0  0  0
  9 23  1  0  0  0
  9 24  1  0  0  0
 10 25  1  0  0  0
 10 26  1  0  0  0
 10 27  1  0  0  0
 11  5  1  0  0  0
 12 11  1  0  0  0
 12 28  1  0  0  0
 13 12  2  0  0  0
 13 29  1  0  0  0
 14 13  1  0  0  0
 14 15  2  0  0  0
 15 16  1  0  0  0
 15 30  1  0  0  0
 16 11  2  0  0  0
 16 31  1  0  0  0
 17 14  1  0  0  0
M  END
$$$$
