1E2
  CCTOOLS-0919241033

 43 43  0  0  1  0  0  0  0  0999 V2000
    1.7130   -2.5540   -0.0720 C   0  0  0  0  0
    3.5950   -0.9290   -0.2750 C   0  0  0  0  0
    3.0210    1.4880   -0.5550 C   0  0  0  0  0
    2.6170    0.1790    0.1270 C   0  0  0  0  0
   -6.0600    1.2740    0.9460 O   0  0  0  0  0
   -6.2570    0.2910    0.2720 C   0  0  0  0  0
   -7.6630   -0.0830   -0.1210 C   0  0  0  0  0
   -5.2250   -0.4680   -0.1270 O   0  0  0  0  0
   -3.8980   -0.0470    0.2880 C   0  0  0  0  0
   -2.8580   -1.0270   -0.2570 C   0  0  0  0  0
   -2.8450   -0.9620   -1.6850 O   0  0  0  0  0
   -1.4750   -0.6560    0.2820 C   0  0  0  0  0
   -0.5230   -1.6370   -0.1320 O   0  0  0  0  0
    0.8080   -1.3840    0.3210 C   0  0  0  0  0
    1.2620   -3.7450    0.5750 O   0  0  0  0  0
    3.1500   -2.2490    0.3630 C   0  0  0  0  0
    4.0140   -3.3030   -0.0660 O   0  0  0  0  0
    4.9080   -0.5970    0.1820 O   0  0  0  0  0
    1.2960   -0.1830   -0.2810 O   0  0  0  0  0
    1.9540    2.8310    0.0350 S   0  0  0  0  0
    0.6230    2.6520   -0.4310 O   0  0  0  0  0
    2.2190    3.1150    1.4020 O   0  0  0  0  0
    2.4490    4.0640   -0.7080 O   0  0  0  0  0
    1.6810   -2.6920   -1.1530 H   0  0  0  0  0
    3.6020   -1.0330   -1.3600 H   0  0  0  0  0
    4.0590    1.7170   -0.3160 H   0  0  0  0  0
    2.9110    1.3840   -1.6350 H   0  0  0  0  0
    2.6410    0.3100    1.2090 H   0  0  0  0  0
   -8.3620    0.6440    0.2920 H   0  0  0  0  0
   -7.7470   -0.0920   -1.2070 H   0  0  0  0  0
   -7.8980   -1.0740    0.2690 H   0  0  0  0  0
   -3.6960    0.9510   -0.1000 H   0  0  0  0  0
   -3.8460   -0.0310    1.3770 H   0  0  0  0  0
   -3.1120   -2.0390    0.0580 H   0  0  0  0  0
   -2.6270   -0.0890   -2.0370 H   0  0  0  0  0
   -1.1840    0.3200   -0.1060 H   0  0  0  0  0
   -1.5080   -0.6180    1.3710 H   0  0  0  0  0
    0.8080   -1.2730    1.4060 H   0  0  0  0  0
    0.3560   -3.9980    0.3470 H   0  0  0  0  0
    3.1910   -2.1610    1.4490 H   0  0  0  0  0
    3.7890   -4.1690    0.3010 H   0  0  0  0  0
    5.5800   -1.2570   -0.0380 H   0  0  0  0  0
    1.9660    4.8730   -0.4920 H   0  0  0  0  0
  1 15  1  0  0  0
  1 24  1  0  0  0
  2  4  1  0  0  0
  2 16  1  0  0  0
  2 25  1  0  0  0
  3 20  1  0  0  0
  3  4  1  0  0  0
  3 26  1  0  0  0
  3 27  1  0  0  0
  4 19  1  0  0  0
  4 28  1  0  0  0
  6  5  2  0  0  0
  6  8  1  0  0  0
  7  6  1  0  0  0
  7 29  1  0  0  0
  7 30  1  0  0  0
  7 31  1  0  0  0
  8  9  1  0  0  0
  9 32  1  0  0  0
  9 33  1  0  0  0
 10  9  1  0  0  0
 10 34  1  0  0  0
 11 10  1  0  0  0
 11 35  1  0  0  0
 12 10  1  0  0  0
 12 36  1  0  0  0
 12 37  1  0  0  0
 13 12  1  0  0  0
 14  1  1  0  0  0
 14 13  1  0  0  0
 14 38  1  0  0  0
 15 39  1  0  0  0
 16  1  1  0  0  0
 16 40  1  0  0  0
 17 16  1  0  0  0
 17 41  1  0  0  0
 18  2  1  0  0  0
 18 42  1  0  0  0
 19 14  1  0  0  0
 20 23  1  0  0  0
 21 20  2  0  0  0
 22 20  2  0  0  0
 23 43  1  0  0  0
M  END
$$$$
