1H2
  CCTOOLS-0919241034

 39 41  0  0  1  0  0  0  0  0999 V2000
   -0.3780   -0.0280   -0.6950 C   0  0  0  0  0
    4.7840    0.3590    0.9330 C   0  0  0  0  0
    0.7830   -0.7720   -0.6400 C   0  0  0  0  0
    0.8590   -1.8830    0.1790 C   0  0  0  0  0
    2.9410    1.7540   -0.5830 C   0  0  0  0  0
   -0.2330   -2.2560    0.9520 C   0  0  0  0  0
   -1.4020   -1.5140    0.9030 C   0  0  0  0  0
    1.9710   -0.3730   -1.4770 C   0  0  0  0  0
    2.9610    0.3730   -0.6200 C   0  0  0  0  0
    3.8490    2.4380    0.2030 C   0  0  0  0  0
    4.7670    1.7400    0.9650 C   0  0  0  0  0
   -1.4780   -0.3960    0.0780 C   0  0  0  0  0
    2.5920   -1.5440   -2.0120 O   0  0  0  0  0
    3.8830   -0.3250    0.1380 C   0  0  0  0  0
   -0.1540   -3.3490    1.7560 O   0  0  0  0  0
   -2.7260    0.4070    0.0250 C   0  0  0  0  0
   -2.9140    1.7010    0.4200 C   0  0  0  0  0
   -1.8810    2.6270    1.0080 C   0  0  0  0  0
   -4.2020    1.9830    0.1780 O   0  0  0  0  0
   -4.7870    1.0400   -0.2990 N   0  0  0  0  0
   -4.0060    0.0110   -0.4530 C   0  0  0  0  0
   -4.3840   -1.3330   -1.0210 C   0  0  0  0  0
   -0.4330    0.8420   -1.3330 H   0  0  0  0  0
    5.5040   -0.1870    1.5250 H   0  0  0  0  0
    1.7690   -2.4630    0.2180 H   0  0  0  0  0
    2.2200    2.2990   -1.1750 H   0  0  0  0  0
   -2.2510   -1.8030    1.5040 H   0  0  0  0  0
    1.6420    0.2690   -2.2940 H   0  0  0  0  0
    3.8350    3.5180    0.2290 H   0  0  0  0  0
    5.4710    2.2750    1.5860 H   0  0  0  0  0
    2.9100   -2.1620   -1.3400 H   0  0  0  0  0
    3.8990   -1.4050    0.1090 H   0  0  0  0  0
    0.1630   -3.1580    2.6490 H   0  0  0  0  0
   -2.3370    3.5930    1.2200 H   0  0  0  0  0
   -1.4930    2.1970    1.9320 H   0  0  0  0  0
   -1.0640    2.7580    0.2980 H   0  0  0  0  0
   -4.7250   -1.9840   -0.2170 H   0  0  0  0  0
   -5.1830   -1.2070   -1.7510 H   0  0  0  0  0
   -3.5160   -1.7790   -1.5060 H   0  0  0  0  0
  1 12  1  0  0  0
  1 23  1  0  0  0
  2 14  2  0  0  0
  2 24  1  0  0  0
  3  1  2  0  0  0
  3  4  1  0  0  0
  4  6  2  0  0  0
  4 25  1  0  0  0
  5  9  2  0  0  0
  5 26  1  0  0  0
  6  7  1  0  0  0
  6 15  1  0  0  0
  7 27  1  0  0  0
  8  3  1  0  0  0
  8 28  1  0  0  0
  9 14  1  0  0  0
  9  8  1  0  0  0
 10 11  2  0  0  0
 10  5  1  0  0  0
 10 29  1  0  0  0
 11  2  1  0  0  0
 11 30  1  0  0  0
 12 16  1  0  0  0
 12  7  2  0  0  0
 13  8  1  0  0  0
 13 31  1  0  0  0
 14 32  1  0  0  0
 15 33  1  0  0  0
 16 21  1  0  0  0
 17 19  1  0  0  0
 17 16  2  0  0  0
 18 17  1  0  0  0
 18 34  1  0  0  0
 18 35  1  0  0  0
 18 36  1  0  0  0
 19 20  1  0  0  0
 20 21  2  0  0  0
 21 22  1  0  0  0
 22 37  1  0  0  0
 22 38  1  0  0  0
 22 39  1  0  0  0
M  END
$$$$
