1H3
  CCTOOLS-0919241034

 39 41  0  0  1  0  0  0  0  0999 V2000
   -0.3400   -0.0230    0.6870 C   0  0  0  0  0
    4.6410    0.5820   -1.1400 C   0  0  0  0  0
    0.8310   -0.7540    0.6740 C   0  0  0  0  0
    0.9070   -1.9300   -0.0480 C   0  0  0  0  0
    2.8980    1.9000    0.5530 C   0  0  0  0  0
   -0.1920   -2.3820   -0.7640 C   0  0  0  0  0
   -1.3710   -1.6540   -0.7570 C   0  0  0  0  0
    2.0290   -0.2690    1.4490 C   0  0  0  0  0
    2.9320    0.5180    0.5360 C   0  0  0  0  0
    3.7270    2.6230   -0.2840 C   0  0  0  0  0
    4.6020    1.9640   -1.1280 C   0  0  0  0  0
   -1.4480   -0.4700   -0.0290 C   0  0  0  0  0
    2.7420   -1.3900    1.9750 O   0  0  0  0  0
    3.8040   -0.1410   -0.3100 C   0  0  0  0  0
   -0.1130   -3.5390   -1.4740 O   0  0  0  0  0
   -2.7100    0.3120   -0.0120 C   0  0  0  0  0
   -3.5310    0.5660    1.0500 C   0  0  0  0  0
   -3.3410    0.1020    2.4720 C   0  0  0  0  0
   -4.5400    1.3090    0.5760 O   0  0  0  0  0
   -4.4220    1.5230   -0.6080 N   0  0  0  0  0
   -3.3470    0.9780   -1.0960 C   0  0  0  0  0
   -2.8720    1.0380   -2.5250 C   0  0  0  0  0
   -0.3980    0.8930    1.2570 H   0  0  0  0  0
    5.3220    0.0670   -1.8020 H   0  0  0  0  0
    1.8260   -2.4990   -0.0560 H   0  0  0  0  0
    2.2170    2.4150    1.2150 H   0  0  0  0  0
   -2.2280   -2.0050   -1.3130 H   0  0  0  0  0
    1.6970    0.3670    2.2700 H   0  0  0  0  0
    3.6970    3.7020   -0.2740 H   0  0  0  0  0
    5.2560    2.5280   -1.7760 H   0  0  0  0  0
    3.0680   -2.0010    1.2990 H   0  0  0  0  0
    3.8310   -1.2200   -0.3240 H   0  0  0  0  0
   -0.3640   -4.3260   -0.9720 H   0  0  0  0  0
   -4.1650    0.4660    3.0860 H   0  0  0  0  0
   -3.3210   -0.9880    2.4990 H   0  0  0  0  0
   -2.3990    0.4930    2.8580 H   0  0  0  0  0
   -3.2890    0.1990   -3.0820 H   0  0  0  0  0
   -3.1990    1.9740   -2.9780 H   0  0  0  0  0
   -1.7830    0.9840   -2.5480 H   0  0  0  0  0
  1 12  1  0  0  0
  1 23  1  0  0  0
  2 14  2  0  0  0
  2 24  1  0  0  0
  3  1  2  0  0  0
  3  4  1  0  0  0
  4  6  2  0  0  0
  4 25  1  0  0  0
  5  9  2  0  0  0
  5 26  1  0  0  0
  6  7  1  0  0  0
  6 15  1  0  0  0
  7 27  1  0  0  0
  8 13  1  0  0  0
  8  3  1  0  0  0
  8 28  1  0  0  0
  9 14  1  0  0  0
  9  8  1  0  0  0
 10 11  2  0  0  0
 10  5  1  0  0  0
 10 29  1  0  0  0
 11  2  1  0  0  0
 11 30  1  0  0  0
 12 16  1  0  0  0
 12  7  2  0  0  0
 13 31  1  0  0  0
 14 32  1  0  0  0
 15 33  1  0  0  0
 16 21  1  0  0  0
 17 19  1  0  0  0
 17 16  2  0  0  0
 18 17  1  0  0  0
 18 34  1  0  0  0
 18 35  1  0  0  0
 18 36  1  0  0  0
 19 20  1  0  0  0
 20 21  2  0  0  0
 21 22  1  0  0  0
 22 37  1  0  0  0
 22 38  1  0  0  0
 22 39  1  0  0  0
M  END
$$$$
