1HP
  CCTOOLS-0919241034

 30 32  0  0  0  0  0  0  0  0999 V2000
   -0.5210    0.5620   -0.0020 C   0  0  0  0  0
   -1.8660    0.2330    0.0010 C   0  0  0  0  0
   -3.0390    0.9690    0.0020 N   0  0  0  0  0
   -3.1490    2.4300    0.0000 C   0  0  0  0  0
   -4.0730    0.0780    0.0040 C   0  0  0  0  0
   -5.4080    0.4160    0.0060 N   0  0  0  0  0
   -3.6060   -1.1470    0.0050 N   0  0  0  0  0
   -2.2500   -1.1210    0.0020 C   0  0  0  0  0
   -1.3230   -2.0790    0.0030 N   0  0  0  0  0
   -0.0390   -1.7980    0.0010 C   0  0  0  0  0
    0.4120   -0.4770   -0.0070 C   0  0  0  0  0
    1.8660   -0.1810   -0.0100 C   0  0  0  0  0
    2.3090    1.1410   -0.0130 C   0  0  0  0  0
    3.6610    1.4130   -0.0140 C   0  0  0  0  0
    4.5800    0.3730   -0.0140 C   0  0  0  0  0
    5.9110    0.6450   -0.0170 O   0  0  0  0  0
    4.1420   -0.9440   -0.0110 C   0  0  0  0  0
    2.7910   -1.2230   -0.0030 C   0  0  0  0  0
   -0.2030    1.5940   -0.0040 H   0  0  0  0  0
   -3.1780    2.7910   -1.0280 H   0  0  0  0  0
   -4.0630    2.7260    0.5150 H   0  0  0  0  0
   -2.2880    2.8600    0.5120 H   0  0  0  0  0
   -5.6720    1.3490    0.0050 H   0  0  0  0  0
   -6.0840   -0.2800    0.0070 H   0  0  0  0  0
    0.6800   -2.6040    0.0010 H   0  0  0  0  0
    1.5940    1.9510   -0.0140 H   0  0  0  0  0
    4.0050    2.4370   -0.0170 H   0  0  0  0  0
    6.2980    0.7250    0.8660 H   0  0  0  0  0
    4.8590   -1.7520   -0.0100 H   0  0  0  0  0
    2.4510   -2.2480    0.0040 H   0  0  0  0  0
  1  2  1  0  0  0
  1 19  1  0  0  0
  2  3  1  0  0  0
  3  5  1  0  0  0
  3  4  1  0  0  0
  4 20  1  0  0  0
  4 21  1  0  0  0
  4 22  1  0  0  0
  5  6  1  0  0  0
  6 23  1  0  0  0
  6 24  1  0  0  0
  7  5  2  0  0  0
  8  2  2  0  0  0
  8  7  1  0  0  0
  9  8  1  0  0  0
 10  9  2  0  0  0
 10 11  1  0  0  0
 10 25  1  0  0  0
 11  1  2  0  0  0
 12 11  1  0  0  0
 12 18  2  0  0  0
 13 12  1  0  0  0
 13 26  1  0  0  0
 14 13  2  0  0  0
 14 15  1  0  0  0
 14 27  1  0  0  0
 15 17  2  0  0  0
 16 15  1  0  0  0
 16 28  1  0  0  0
 17 18  1  0  0  0
 17 29  1  0  0  0
 18 30  1  0  0  0
M  END
$$$$
