1KT
  CCTOOLS-0919241034

 70 74  0  0  1  0  0  0  0  0999 V2000
   -1.0360   -3.9410    0.3030 O   0  0  0  0  0
   -1.1360   -2.7580    0.5510 C   0  0  0  0  0
    0.1130   -1.9240    0.7080 C   0  0  0  0  0
   -2.3520   -2.2090    0.6770 N   0  0  0  0  0
   -3.5350   -3.0240    0.3250 C   0  0  0  0  0
   -4.2060   -2.3690   -0.8810 C   0  0  0  0  0
   -4.3550   -0.8840   -0.6820 C   0  0  0  0  0
   -5.2860   -0.2170   -1.4670 C   0  0  0  0  0
   -5.4650    1.1500   -1.3410 C   0  0  0  0  0
   -6.3800    1.7910   -2.1140 O   0  0  0  0  0
   -6.5120    3.2020   -1.9290 C   0  0  0  0  0
   -4.7090    1.8630   -0.4230 C   0  0  0  0  0
   -3.7840    1.1990    0.3630 C   0  0  0  0  0
   -3.0410    1.8930    1.2640 O   0  0  0  0  0
   -3.2680    3.3020    1.3440 C   0  0  0  0  0
   -3.6100   -0.1770    0.2370 C   0  0  0  0  0
   -2.6080   -0.8540    1.1330 C   0  0  0  0  0
   -1.3620   -0.0030    1.3010 C   0  0  0  0  0
   -0.8870   -0.0750    2.7580 C   0  0  0  0  0
   -0.5290   -1.5240    3.0960 C   0  0  0  0  0
    0.5920   -2.0100    2.1610 C   0  0  0  0  0
   -0.2840   -0.5240    0.4400 N   0  0  0  0  0
    0.3010    0.2230   -0.5170 C   0  0  0  0  0
   -0.1180    1.3360   -0.7590 O   0  0  0  0  0
    1.4630   -0.3190   -1.2810 C   0  0  0  0  0
    1.2760   -1.0170   -2.2570 O   0  0  0  0  0
    2.8340   -0.0080   -0.8510 C   0  0  0  0  0
    3.9240   -0.4280   -1.6250 C   0  0  0  0  0
    3.0540    0.7130    0.3290 C   0  0  0  0  0
    4.3420    1.0030    0.7300 C   0  0  0  0  0
    4.5560    1.7040    1.8760 O   0  0  0  0  0
    3.4020    2.1070    2.6150 C   0  0  0  0  0
    5.4250    0.5790   -0.0390 C   0  0  0  0  0
    6.6920    0.8650    0.3580 O   0  0  0  0  0
    7.2540    2.0950   -0.1050 C   0  0  0  0  0
    5.2100   -0.1340   -1.2180 C   0  0  0  0  0
    6.2700   -0.5460   -1.9650 O   0  0  0  0  0
    5.9770   -1.2720   -3.1610 C   0  0  0  0  0
    0.8920   -2.2570    0.0220 H   0  0  0  0  0
   -3.2230   -4.0370    0.0700 H   0  0  0  0  0
   -4.2280   -3.0520    1.1660 H   0  0  0  0  0
   -3.6010   -2.5520   -1.7690 H   0  0  0  0  0
   -5.1920   -2.8110   -1.0240 H   0  0  0  0  0
   -5.8750   -0.7700   -2.1840 H   0  0  0  0  0
   -6.8030    3.4080   -0.8990 H   0  0  0  0  0
   -5.5580    3.6870   -2.1410 H   0  0  0  0  0
   -7.2740    3.5880   -2.6060 H   0  0  0  0  0
   -4.8420    2.9300   -0.3220 H   0  0  0  0  0
   -2.6120    3.7330    2.1000 H   0  0  0  0  0
   -3.0590    3.7590    0.3770 H   0  0  0  0  0
   -4.3070    3.4870    1.6170 H   0  0  0  0  0
   -3.0670   -0.9300    2.1190 H   0  0  0  0  0
   -1.5820    1.0280    1.0260 H   0  0  0  0  0
   -0.0080    0.5570    2.8860 H   0  0  0  0  0
   -1.6840    0.2670    3.4180 H   0  0  0  0  0
   -0.1910   -1.5820    4.1310 H   0  0  0  0  0
   -1.4090   -2.1550    2.9670 H   0  0  0  0  0
    0.8410   -3.0430    2.4010 H   0  0  0  0  0
    1.4750   -1.3840    2.2910 H   0  0  0  0  0
    3.7590   -0.9810   -2.5380 H   0  0  0  0  0
    2.2150    1.0420    0.9260 H   0  0  0  0  0
    2.8340    1.2250    2.9120 H   0  0  0  0  0
    3.7130    2.6550    3.5040 H   0  0  0  0  0
    2.7770    2.7470    1.9920 H   0  0  0  0  0
    6.6430    2.9280    0.2420 H   0  0  0  0  0
    8.2670    2.2000    0.2840 H   0  0  0  0  0
    7.2820    2.0940   -1.1950 H   0  0  0  0  0
    6.9080   -1.5400   -3.6600 H   0  0  0  0  0
    5.4250   -2.1780   -2.9100 H   0  0  0  0  0
    5.3740   -0.6510   -3.8240 H   0  0  0  0  0
  2  1  2  0  0  0
  2  3  1  0  0  0
  3 21  1  0  0  0
  3 39  1  0  0  0
  4  2  1  0  0  0
  5  4  1  0  0  0
  5 40  1  0  0  0
  5 41  1  0  0  0
  6  5  1  0  0  0
  6 42  1  0  0  0
  6 43  1  0  0  0
  7  6  1  0  0  0
  7 16  2  0  0  0
  8  7  1  0  0  0
  8 44  1  0  0  0
  9  8  2  0  0  0
  9 12  1  0  0  0
 10  9  1  0  0  0
 11 10  1  0  0  0
 11 45  1  0  0  0
 11 46  1  0  0  0
 11 47  1  0  0  0
 12 13  2  0  0  0
 12 48  1  0  0  0
 13 16  1  0  0  0
 13 14  1  0  0  0
 15 14  1  0  0  0
 15 49  1  0  0  0
 15 50  1  0  0  0
 15 51  1  0  0  0
 16 17  1  0  0  0
 17  4  1  0  0  0
 17 18  1  0  0  0
 17 52  1  0  0  0
 18 22  1  0  0  0
 18 19  1  0  0  0
 18 53  1  0  0  0
 19 20  1  0  0  0
 19 54  1  0  0  0
 19 55  1  0  0  0
 20 56  1  0  0  0
 20 57  1  0  0  0
 21 20  1  0  0  0
 21 58  1  0  0  0
 21 59  1  0  0  0
 22  3  1  0  0  0
 23 24  2  0  0  0
 23 22  1  0  0  0
 25 23  1  0  0  0
 25 26  2  0  0  0
 27 25  1  0  0  0
 28 27  2  0  0  0
 28 60  1  0  0  0
 29 27  1  0  0  0
 29 61  1  0  0  0
 30 29  2  0  0  0
 31 30  1  0  0  0
 31 32  1  0  0  0
 32 62  1  0  0  0
 32 63  1  0  0  0
 32 64  1  0  0  0
 33 36  2  0  0  0
 33 30  1  0  0  0
 34 33  1  0  0  0
 35 34  1  0  0  0
 35 65  1  0  0  0
 35 66  1  0  0  0
 35 67  1  0  0  0
 36 28  1  0  0  0
 37 38  1  0  0  0
 37 36  1  0  0  0
 38 68  1  0  0  0
 38 69  1  0  0  0
 38 70  1  0  0  0
M  END
$$$$
