1KU
  CCTOOLS-0919241034

 65 69  0  0  1  0  0  0  0  0999 V2000
   -0.6650    1.5170   -1.5780 C   0  0  0  0  0
   -1.7380    2.1320    0.5160 N   0  0  0  0  0
   -0.6300    1.7120   -2.7750 O   0  0  0  0  0
   -1.0760    2.6550   -0.6880 C   0  0  0  0  0
    0.1690    3.4410   -0.2730 C   0  0  0  0  0
    5.1540   -1.9030    3.0560 C   0  0  0  0  0
    6.0640   -1.4310    2.0600 O   0  0  0  0  0
    5.5330   -1.0550    0.8660 C   0  0  0  0  0
    4.1660   -1.1390    0.6580 C   0  0  0  0  0
    6.3610   -0.5800   -0.1460 C   0  0  0  0  0
    7.7030   -0.4910    0.0580 O   0  0  0  0  0
    8.4930    0.0050   -1.0250 C   0  0  0  0  0
    5.8180   -0.1970   -1.3610 C   0  0  0  0  0
    4.4540   -0.2870   -1.5690 C   0  0  0  0  0
    3.6260   -0.7550   -0.5600 C   0  0  0  0  0
    2.2850   -0.8430   -0.7670 O   0  0  0  0  0
    1.7980   -0.4360   -2.0480 C   0  0  0  0  0
    0.2780   -0.6050   -2.0920 C   0  0  0  0  0
   -0.3430    0.3110   -1.1330 N   0  0  0  0  0
   -0.5470   -0.1920    0.2180 C   0  0  0  0  0
    0.1220    0.7170    1.2540 C   0  0  0  0  0
   -0.8790    1.8030    1.6640 C   0  0  0  0  0
   -0.1620    3.0440    2.1740 C   0  0  0  0  0
   -0.0490    4.0920    1.0890 C   0  0  0  0  0
   -3.3810    1.9270    0.5710 S   0  0  0  0  0
   -3.7430    1.9590    1.9450 O   0  0  0  0  0
   -3.9280    2.8110   -0.3980 O   0  0  0  0  0
   -3.7230    0.2940    0.0040 C   0  0  0  0  0
   -3.7680   -0.7490    0.9000 C   0  0  0  0  0
   -4.0380   -2.0400    0.4520 C   0  0  0  0  0
   -4.1690   -3.5750    1.3060 S   0  0  0  0  0
   -4.5020   -4.3890   -0.1570 C   0  0  0  0  0
   -4.5090   -3.5830   -1.1510 N   0  0  0  0  0
   -4.2650   -2.2820   -0.9080 C   0  0  0  0  0
   -4.2120   -1.1930   -1.8020 C   0  0  0  0  0
   -3.9520    0.0630   -1.3450 C   0  0  0  0  0
   -1.7620    3.3090   -1.2270 H   0  0  0  0  0
    1.0220    2.7650   -0.2180 H   0  0  0  0  0
    0.3700    4.2160   -1.0130 H   0  0  0  0  0
    5.7070   -2.1690    3.9570 H   0  0  0  0  0
    4.4330   -1.1200    3.2890 H   0  0  0  0  0
    4.6280   -2.7810    2.6800 H   0  0  0  0  0
    3.5210   -1.5040    1.4440 H   0  0  0  0  0
    9.5420    0.0240   -0.7310 H   0  0  0  0  0
    8.3700   -0.6440   -1.8910 H   0  0  0  0  0
    8.1680    1.0140   -1.2780 H   0  0  0  0  0
    6.4600    0.1720   -2.1470 H   0  0  0  0  0
    4.0320    0.0120   -2.5180 H   0  0  0  0  0
    2.0530    0.6100   -2.2170 H   0  0  0  0  0
    2.2550   -1.0520   -2.8220 H   0  0  0  0  0
   -0.0830   -0.3800   -3.0960 H   0  0  0  0  0
    0.0190   -1.6320   -1.8350 H   0  0  0  0  0
   -1.6170   -0.2410    0.4230 H   0  0  0  0  0
   -0.1230   -1.1930    0.2940 H   0  0  0  0  0
    0.4060    0.1310    2.1280 H   0  0  0  0  0
    1.0080    1.1800    0.8190 H   0  0  0  0  0
   -1.5020    1.4140    2.4700 H   0  0  0  0  0
   -0.7190    3.4590    3.0150 H   0  0  0  0  0
    0.8380    2.7670    2.5090 H   0  0  0  0  0
    0.7970    4.7420    1.3140 H   0  0  0  0  0
   -0.9610    4.6880    1.0590 H   0  0  0  0  0
   -3.5930   -0.5680    1.9510 H   0  0  0  0  0
   -4.6840   -5.4500   -0.2330 H   0  0  0  0  0
   -4.3840   -1.3560   -2.8560 H   0  0  0  0  0
   -3.9190    0.8880   -2.0410 H   0  0  0  0  0
  1 19  1  0  0  0
  2 25  1  0  0  0
  3  1  2  0  0  0
  4  1  1  0  0  0
  4  2  1  0  0  0
  4 37  1  0  0  0
  5  4  1  0  0  0
  5 38  1  0  0  0
  5 39  1  0  0  0
  6 40  1  0  0  0
  6 41  1  0  0  0
  6 42  1  0  0  0
  7  6  1  0  0  0
  8  7  1  0  0  0
  8  9  1  0  0  0
  9 43  1  0  0  0
 10  8  2  0  0  0
 11 10  1  0  0  0
 11 12  1  0  0  0
 12 44  1  0  0  0
 12 45  1  0  0  0
 12 46  1  0  0  0
 13 10  1  0  0  0
 13 14  2  0  0  0
 13 47  1  0  0  0
 14 15  1  0  0  0
 14 48  1  0  0  0
 15  9  2  0  0  0
 15 16  1  0  0  0
 16 17  1  0  0  0
 17 49  1  0  0  0
 17 50  1  0  0  0
 18 17  1  0  0  0
 18 51  1  0  0  0
 18 52  1  0  0  0
 19 18  1  0  0  0
 19 20  1  0  0  0
 20 53  1  0  0  0
 20 54  1  0  0  0
 21 20  1  0  0  0
 21 55  1  0  0  0
 21 56  1  0  0  0
 22  2  1  0  0  0
 22 21  1  0  0  0
 22 57  1  0  0  0
 23 22  1  0  0  0
 23 58  1  0  0  0
 23 59  1  0  0  0
 24  5  1  0  0  0
 24 23  1  0  0  0
 24 60  1  0  0  0
 24 61  1  0  0  0
 25 28  1  0  0  0
 26 25  2  0  0  0
 27 25  2  0  0  0
 28 29  2  0  0  0
 28 36  1  0  0  0
 29 30  1  0  0  0
 29 62  1  0  0  0
 30 31  1  0  0  0
 30 34  2  0  0  0
 31 32  1  0  0  0
 32 63  1  0  0  0
 33 32  2  0  0  0
 34 33  1  0  0  0
 35 34  1  0  0  0
 35 64  1  0  0  0
 36 35  2  0  0  0
 36 65  1  0  0  0
M  END
$$$$
