1KY
  CCTOOLS-0919241034

 63 67  0  0  1  0  0  0  0  0999 V2000
   -0.8930    1.7790    1.0730 C   0  0  0  0  0
    0.9630    0.7290   -0.0410 N   0  0  0  0  0
   -1.7270    1.7780    1.9530 O   0  0  0  0  0
    0.4060    1.0380    1.2940 C   0  0  0  0  0
    1.3830    2.0310    1.9550 C   0  0  0  0  0
   -8.5750   -1.8900   -2.1650 C   0  0  0  0  0
   -5.7040   -2.5490    2.6060 C   0  0  0  0  0
    9.2120   -1.0350   -0.1230 O   0  0  0  0  0
    0.6930   -1.6910    0.3570 O   0  0  0  0  0
    1.3690   -0.8470   -1.8970 O   0  0  0  0  0
   -5.5280    0.6440   -1.1710 C   0  0  0  0  0
   -6.5550   -0.2260   -1.4860 C   0  0  0  0  0
    3.4670   -1.4580    1.2160 C   0  0  0  0  0
    4.7870   -1.6090    1.5690 C   0  0  0  0  0
   -5.1350   -0.5530    0.8750 C   0  0  0  0  0
    4.1110   -0.6510   -0.9380 C   0  0  0  0  0
    1.4220    3.2960    1.0900 C   0  0  0  0  0
   -3.5330    2.3820   -0.6230 C   0  0  0  0  0
    1.9460    2.9550   -0.3050 C   0  0  0  0  0
   -2.3730    3.2380   -0.1090 C   0  0  0  0  0
   -0.3180    2.4100   -1.2530 C   0  0  0  0  0
    7.1800   -1.3770    0.8640 N   0  0  0  0  0
   -7.8910   -2.1140   -0.9310 O   0  0  0  0  0
   -6.4850   -2.4340    1.4150 O   0  0  0  0  0
   -3.8060    1.3390    0.3150 O   0  0  0  0  0
    6.9480   -0.4990   -1.4620 S   0  0  0  0  0
   -4.8170    0.4820    0.0080 C   0  0  0  0  0
    3.1180   -0.9820   -0.0370 C   0  0  0  0  0
   -6.8800   -1.2580   -0.6200 C   0  0  0  0  0
   -6.1710   -1.4190    0.5660 C   0  0  0  0  0
    7.9950   -1.0150   -0.1310 C   0  0  0  0  0
    5.8130   -1.2850    0.6680 C   0  0  0  0  0
    5.4410   -0.8070   -0.5890 C   0  0  0  0  0
    1.0810    1.8790   -0.9570 C   0  0  0  0  0
   -1.1520    2.4290   -0.0620 N   0  0  0  0  0
    1.4220   -0.8010   -0.4770 S   0  0  0  0  0
    0.2630    0.1380    1.8920 H   0  0  0  0  0
    1.0350    2.2800    2.9570 H   0  0  0  0  0
    2.3780    1.5890    2.0090 H   0  0  0  0  0
   -9.0240   -0.8970   -2.1570 H   0  0  0  0  0
   -7.8670   -1.9610   -2.9910 H   0  0  0  0  0
   -9.3550   -2.6400   -2.2900 H   0  0  0  0  0
   -4.6580   -2.7010    2.3420 H   0  0  0  0  0
   -5.8010   -1.6360    3.1940 H   0  0  0  0  0
   -6.0580   -3.3970    3.1920 H   0  0  0  0  0
   -5.2750    1.4470   -1.8470 H   0  0  0  0  0
   -7.1050   -0.1010   -2.4070 H   0  0  0  0  0
    2.6930   -1.7180    1.9220 H   0  0  0  0  0
    5.0380   -1.9820    2.5520 H   0  0  0  0  0
   -4.5810   -0.6780    1.7930 H   0  0  0  0  0
    3.8500   -0.2790   -1.9180 H   0  0  0  0  0
    0.4170    3.7100    1.0080 H   0  0  0  0  0
    2.0810    4.0310    1.5530 H   0  0  0  0  0
   -4.4190    3.0050   -0.7420 H   0  0  0  0  0
   -3.2640    1.9450   -1.5840 H   0  0  0  0  0
    1.9290    3.8520   -0.9240 H   0  0  0  0  0
    2.9700    2.5920   -0.2260 H   0  0  0  0  0
   -2.2220    4.0850   -0.7790 H   0  0  0  0  0
   -2.6060    3.6030    0.8910 H   0  0  0  0  0
   -0.2370    3.4230   -1.6460 H   0  0  0  0  0
   -0.7860    1.7750   -2.0050 H   0  0  0  0  0
    7.5380   -1.6990    1.7060 H   0  0  0  0  0
    1.5500    1.5560   -1.8860 H   0  0  0  0  0
  1  3  2  0  0  0
  1  4  1  0  0  0
  2 34  1  0  0  0
  2  4  1  0  0  0
  4  5  1  0  0  0
  4 37  1  0  0  0
  5 38  1  0  0  0
  5 39  1  0  0  0
  6 40  1  0  0  0
  6 41  1  0  0  0
  6 42  1  0  0  0
  7 24  1  0  0  0
  7 43  1  0  0  0
  7 44  1  0  0  0
  7 45  1  0  0  0
  8 31  2  0  0  0
 11 12  1  0  0  0
 11 46  1  0  0  0
 12 47  1  0  0  0
 13 28  1  0  0  0
 13 48  1  0  0  0
 14 13  2  0  0  0
 14 49  1  0  0  0
 15 27  1  0  0  0
 15 30  2  0  0  0
 15 50  1  0  0  0
 16 28  2  0  0  0
 16 51  1  0  0  0
 17  5  1  0  0  0
 17 52  1  0  0  0
 17 53  1  0  0  0
 18 25  1  0  0  0
 18 20  1  0  0  0
 18 54  1  0  0  0
 18 55  1  0  0  0
 19 17  1  0  0  0
 19 56  1  0  0  0
 19 57  1  0  0  0
 20 35  1  0  0  0
 20 58  1  0  0  0
 20 59  1  0  0  0
 21 35  1  0  0  0
 21 34  1  0  0  0
 21 60  1  0  0  0
 21 61  1  0  0  0
 22 32  1  0  0  0
 22 62  1  0  0  0
 23  6  1  0  0  0
 24 30  1  0  0  0
 25 27  1  0  0  0
 26 33  1  0  0  0
 27 11  2  0  0  0
 28 36  1  0  0  0
 29 12  2  0  0  0
 29 23  1  0  0  0
 30 29  1  0  0  0
 31 22  1  0  0  0
 31 26  1  0  0  0
 32 14  1  0  0  0
 32 33  2  0  0  0
 33 16  1  0  0  0
 34 19  1  0  0  0
 34 63  1  0  0  0
 35  1  1  0  0  0
 36  2  1  0  0  0
 36  9  2  0  0  0
 36 10  2  0  0  0
M  END
$$$$
