1KZ
  CCTOOLS-0919241034

 61 64  0  0  1  0  0  0  0  0999 V2000
   -7.5970    1.1690   -2.9650 C   0  0  0  0  0
   -8.2070    0.5660   -1.8220 O   0  0  0  0  0
   -7.3790   -0.0330   -0.9240 C   0  0  0  0  0
   -6.0100   -0.0340   -1.1370 C   0  0  0  0  0
   -7.9050   -0.6400    0.2120 C   0  0  0  0  0
   -9.2490   -0.6350    0.4250 O   0  0  0  0  0
   -9.7200   -1.2770    1.6120 C   0  0  0  0  0
   -7.0610   -1.2490    1.1250 C   0  0  0  0  0
   -5.6950   -1.2550    0.9080 C   0  0  0  0  0
   -5.1680   -0.6460   -0.2210 C   0  0  0  0  0
   -3.8240   -0.6480   -0.4290 O   0  0  0  0  0
   -3.0160   -1.2950    0.5560 C   0  0  0  0  0
   -1.5430   -1.1960    0.1530 C   0  0  0  0  0
   -1.1300    0.1960    0.1710 O   0  0  0  0  0
    0.1450    0.4570   -0.1610 C   0  0  0  0  0
    0.8890   -0.4470   -0.4570 O   0  0  0  0  0
    0.6460    1.8780   -0.1640 C   0  0  0  0  0
    1.1400    2.2450   -1.5670 C   0  0  0  0  0
    1.7740    3.6370   -1.5330 C   0  0  0  0  0
    2.9760    3.6280   -0.5850 C   0  0  0  0  0
    2.5030    3.2770    0.8290 C   0  0  0  0  0
    1.7650    2.0080    0.7790 N   0  0  0  0  0
    2.1860    0.7470    1.7680 S   0  0  0  0  0
    2.8740    1.3170    2.8730 O   0  0  0  0  0
    1.0240   -0.0590    1.9070 O   0  0  0  0  0
    3.3660   -0.2280    0.8950 C   0  0  0  0  0
    4.6550    0.2350    0.7160 C   0  0  0  0  0
    5.5760   -0.5370    0.0310 C   0  0  0  0  0
    7.2760   -0.2780   -0.3840 S   0  0  0  0  0
    7.4580   -1.8260   -1.2250 C   0  0  0  0  0
    8.4630   -2.2530   -1.7630 O   0  0  0  0  0
    6.2680   -2.4310   -1.1500 N   0  0  0  0  0
    5.2370   -1.7860   -0.4920 C   0  0  0  0  0
    3.9210   -2.2340   -0.2980 C   0  0  0  0  0
    3.0110   -1.4660    0.3890 C   0  0  0  0  0
   -6.9050    1.9470   -2.6400 H   0  0  0  0  0
   -7.0530    0.4120   -3.5290 H   0  0  0  0  0
   -8.3680    1.6100   -3.5980 H   0  0  0  0  0
   -5.5990    0.4390   -2.0160 H   0  0  0  0  0
   -9.4290   -2.3280    1.5970 H   0  0  0  0  0
   -9.2830   -0.7920    2.4850 H   0  0  0  0  0
  -10.8060   -1.2010    1.6600 H   0  0  0  0  0
   -7.4690   -1.7200    2.0070 H   0  0  0  0  0
   -5.0380   -1.7300    1.6210 H   0  0  0  0  0
   -3.1620   -0.8110    1.5210 H   0  0  0  0  0
   -3.3030   -2.3450    0.6280 H   0  0  0  0  0
   -0.9350   -1.7650    0.8560 H   0  0  0  0  0
   -1.4130   -1.6010   -0.8510 H   0  0  0  0  0
   -0.1600    2.5510    0.1300 H   0  0  0  0  0
    1.8800    1.5160   -1.8950 H   0  0  0  0  0
    0.2980    2.2450   -2.2600 H   0  0  0  0  0
    2.1040    3.9110   -2.5350 H   0  0  0  0  0
    1.0400    4.3620   -1.1810 H   0  0  0  0  0
    3.6990    2.8860   -0.9220 H   0  0  0  0  0
    3.4410    4.6140   -0.5790 H   0  0  0  0  0
    3.3660    3.1720    1.4870 H   0  0  0  0  0
    1.8500    4.0660    1.2030 H   0  0  0  0  0
    4.9440    1.1980    1.1110 H   0  0  0  0  0
    6.1310   -3.3050   -1.5480 H   0  0  0  0  0
    3.6220   -3.1960   -0.6890 H   0  0  0  0  0
    2.0040   -1.8320    0.5310 H   0  0  0  0  0
  1  2  1  0  0  0
  1 36  1  0  0  0
  1 37  1  0  0  0
  1 38  1  0  0  0
  2  3  1  0  0  0
  3  5  2  0  0  0
  4 10  2  0  0  0
  4  3  1  0  0  0
  4 39  1  0  0  0
  5  8  1  0  0  0
  5  6  1  0  0  0
  6  7  1  0  0  0
  7 40  1  0  0  0
  7 41  1  0  0  0
  7 42  1  0  0  0
  8 43  1  0  0  0
  9  8  2  0  0  0
  9 44  1  0  0  0
 10  9  1  0  0  0
 11 12  1  0  0  0
 11 10  1  0  0  0
 12 45  1  0  0  0
 12 46  1  0  0  0
 13 12  1  0  0  0
 13 47  1  0  0  0
 13 48  1  0  0  0
 14 13  1  0  0  0
 15 14  1  0  0  0
 16 15  2  0  0  0
 17 22  1  0  0  0
 17 15  1  0  0  0
 17 49  1  0  0  0
 18 17  1  0  0  0
 18 50  1  0  0  0
 18 51  1  0  0  0
 19 18  1  0  0  0
 19 20  1  0  0  0
 19 52  1  0  0  0
 19 53  1  0  0  0
 20 21  1  0  0  0
 20 54  1  0  0  0
 20 55  1  0  0  0
 21 22  1  0  0  0
 21 56  1  0  0  0
 21 57  1  0  0  0
 22 23  1  0  0  0
 23 26  1  0  0  0
 24 23  2  0  0  0
 25 23  2  0  0  0
 26 27  2  0  0  0
 26 35  1  0  0  0
 27 28  1  0  0  0
 27 58  1  0  0  0
 28 29  1  0  0  0
 28 33  2  0  0  0
 29 30  1  0  0  0
 30 31  2  0  0  0
 32 30  1  0  0  0
 32 59  1  0  0  0
 33 32  1  0  0  0
 34 33  1  0  0  0
 34 60  1  0  0  0
 35 34  2  0  0  0
 35 61  1  0  0  0
M  END
$$$$
