1MV
  CCTOOLS-0919241034

 41 43  0  0  0  0  0  0  0  0999 V2000
    2.7390   -2.4020    2.0790 O   0  0  0  0  0
    3.3540   -1.9430    0.8130 P   0  0  0  0  0
    4.9570   -2.0440    0.9270 O   0  0  0  0  0
    2.8430   -2.8710   -0.4000 O   0  0  0  0  0
    2.8750   -0.2120    0.4980 C   0  0  0  0  0
    3.6330    0.3530   -1.0610 P   0  0  0  0  0
    5.1060    0.2600   -0.9560 O   0  0  0  0  0
    3.1220   -0.5740   -2.2740 O   0  0  0  0  0
    3.2100    1.8820   -1.3400 O   0  0  0  0  0
    1.4170   -0.1200    0.3940 N   0  0  0  0  0
    0.7950    1.1120    0.4660 C   0  0  0  0  0
    1.5070    2.2170    0.6300 N   0  0  0  0  0
    0.9270    3.4010    0.7010 C   0  0  0  0  0
   -0.3750    3.5490    0.6140 N   0  0  0  0  0
   -1.1810    2.4930    0.4480 C   0  0  0  0  0
   -2.9290    2.3840    0.3000 S   0  0  0  0  0
   -0.6180    1.2150    0.3610 C   0  0  0  0  0
   -1.6210    0.1880    0.1760 C   0  0  0  0  0
   -2.8750    0.6390    0.1330 C   0  0  0  0  0
   -4.0650   -0.2200   -0.0440 C   0  0  0  0  0
   -5.3390    0.3480   -0.0890 C   0  0  0  0  0
   -6.4450   -0.4590   -0.2550 C   0  0  0  0  0
   -6.2940   -1.8290   -0.3770 C   0  0  0  0  0
   -7.5070   -2.7050   -0.5590 C   0  0  0  0  0
   -5.0340   -2.3980   -0.3340 C   0  0  0  0  0
   -3.9190   -1.6020   -0.1740 C   0  0  0  0  0
    5.2840   -2.9380    1.0950 H   0  0  0  0  0
    3.2070   -2.6260   -1.2620 H   0  0  0  0  0
    3.2210    0.4160    1.3190 H   0  0  0  0  0
    3.4850   -0.3300   -3.1360 H   0  0  0  0  0
    2.2560    2.0170   -1.4200 H   0  0  0  0  0
    0.8880   -0.9240    0.2730 H   0  0  0  0  0
    1.5430    4.2780    0.8360 H   0  0  0  0  0
   -1.3740   -0.8600    0.0920 H   0  0  0  0  0
   -5.4580    1.4170    0.0070 H   0  0  0  0  0
   -7.4320   -0.0210   -0.2890 H   0  0  0  0  0
   -7.7190   -2.8160   -1.6230 H   0  0  0  0  0
   -7.3160   -3.6850   -0.1230 H   0  0  0  0  0
   -8.3630   -2.2470   -0.0640 H   0  0  0  0  0
   -4.9220   -3.4680   -0.4310 H   0  0  0  0  0
   -2.9350   -2.0470   -0.1450 H   0  0  0  0  0
  1  2  2  0  0  0
  2  3  1  0  0  0
  2  4  1  0  0  0
  2  5  1  0  0  0
  3 27  1  0  0  0
  4 28  1  0  0  0
  5  6  1  0  0  0
  5 10  1  0  0  0
  5 29  1  0  0  0
  6  7  2  0  0  0
  6  8  1  0  0  0
  6  9  1  0  0  0
  8 30  1  0  0  0
  9 31  1  0  0  0
 10 11  1  0  0  0
 10 32  1  0  0  0
 11 12  2  0  0  0
 11 17  1  0  0  0
 12 13  1  0  0  0
 13 14  2  0  0  0
 13 33  1  0  0  0
 14 15  1  0  0  0
 15 16  1  0  0  0
 15 17  2  0  0  0
 16 19  1  0  0  0
 17 18  1  0  0  0
 18 19  2  0  0  0
 18 34  1  0  0  0
 19 20  1  0  0  0
 20 21  2  0  0  0
 20 26  1  0  0  0
 21 22  1  0  0  0
 21 35  1  0  0  0
 22 23  2  0  0  0
 22 36  1  0  0  0
 23 24  1  0  0  0
 23 25  1  0  0  0
 24 37  1  0  0  0
 24 38  1  0  0  0
 24 39  1  0  0  0
 25 26  2  0  0  0
 25 40  1  0  0  0
 26 41  1  0  0  0
M  END
$$$$
