1QV
  CCTOOLS-0919241035

 19 20  0  0  0  0  0  0  0  0999 V2000
    2.8870   -0.9000    0.0140 C   0  0  0  0  0
    3.0690    0.4800    0.0230 C   0  0  0  0  0
    1.9750    1.3200    0.0090 C   0  0  0  0  0
    0.6850    0.7890   -0.0150 C   0  0  0  0  0
    0.4890   -0.5950   -0.0250 C   0  0  0  0  0
    1.6220   -1.4380   -0.0100 C   0  0  0  0  0
   -1.6690    0.0400   -0.0580 C   0  0  0  0  0
    3.9630   -1.7170    0.0230 F   0  0  0  0  0
    4.3170    0.9960    0.0470 F   0  0  0  0  0
    2.1530    2.6590    0.0180 F   0  0  0  0  0
    1.4620   -2.7790   -0.0200 F   0  0  0  0  0
   -0.8190   -0.9160   -0.0490 N   0  0  0  0  0
   -3.9290   -0.2560    1.4840 N   0  0  0  0  0
   -3.9650    1.0050   -0.6370 O   0  0  0  0  0
   -3.6440   -1.4740   -0.6430 O   0  0  0  0  0
   -3.4160   -0.1860   -0.0890 S   0  0  0  0  0
   -0.8970    1.5620   -0.0380 S   0  0  0  0  0
   -4.8180    0.0520    1.7180 H   0  0  0  0  0
   -3.3390   -0.6050    2.1710 H   0  0  0  0  0
  1  6  2  0  0  0
  2  3  2  0  0  0
  2  1  1  0  0  0
  3  4  1  0  0  0
  4 17  1  0  0  0
  4  5  2  0  0  0
  5 12  1  0  0  0
  6  5  1  0  0  0
  6 11  1  0  0  0
  7 16  1  0  0  0
  8  1  1  0  0  0
  9  2  1  0  0  0
 10  3  1  0  0  0
 12  7  2  0  0  0
 13 16  1  0  0  0
 13 18  1  0  0  0
 13 19  1  0  0  0
 14 16  2  0  0  0
 16 15  2  0  0  0
 17  7  1  0  0  0
M  END
$$$$
