1SZ
  CCTOOLS-0919241035

160167  0  0  0  0  0  0  0  0999 V2000
  -19.7190    7.7740   -0.4360 C   0  0  0  0  0
  -18.4000    7.8210   -0.2680 N   0  0  0  0  0
  -20.0760    6.4880   -0.6690 C   0  0  0  0  0
  -17.9050    6.6070   -0.3850 C   0  0  0  0  0
  -18.9360    5.7460   -0.6380 N   0  0  0  0  0
  -18.8330    4.2980   -0.8370 C   0  0  0  0  0
  -16.4830    6.2390   -0.2660 C   0  0  0  0  0
  -16.1420    5.0790   -0.3950 O   0  0  0  0  0
  -15.5600    7.1890   -0.0140 N   0  0  0  0  0
  -14.2030    6.8380    0.1000 C   0  0  0  0  0
  -13.6690    5.5470   -0.0310 C   0  0  0  0  0
  -13.1740    7.6890    0.3500 C   0  0  0  0  0
  -12.3060    5.6520    0.1530 C   0  0  0  0  0
  -12.0170    6.9770    0.3860 N   0  0  0  0  0
  -10.6820    7.5290    0.6290 C   0  0  0  0  0
  -11.3400    4.5510    0.1040 C   0  0  0  0  0
  -10.1480    4.7820    0.1920 O   0  0  0  0  0
  -11.7710    3.2820   -0.0380 N   0  0  0  0  0
  -10.8570    2.2190    0.0260 C   0  0  0  0  0
  -11.1530    0.9250   -0.0990 N   0  0  0  0  0
   -9.5140    2.3320    0.2200 C   0  0  0  0  0
  -10.0490    0.2150    0.0140 C   0  0  0  0  0
   -9.0030    1.0700    0.2150 N   0  0  0  0  0
   -7.5970    0.6990    0.3890 C   0  0  0  0  0
   -9.9580   -1.2530   -0.0670 C   0  0  0  0  0
   -8.8800   -1.8030    0.0530 O   0  0  0  0  0
  -11.0690   -1.9870   -0.2740 N   0  0  0  0  0
  -10.9820   -3.3880   -0.3510 C   0  0  0  0  0
   -9.8120   -4.1520   -0.2300 C   0  0  0  0  0
  -12.0180   -4.2460   -0.5490 C   0  0  0  0  0
  -10.1750   -5.4750   -0.3670 C   0  0  0  0  0
  -11.5370   -5.5170   -0.5630 N   0  0  0  0  0
  -12.3360   -6.7300   -0.7500 C   0  0  0  0  0
   -9.2730   -6.6300   -0.3120 C   0  0  0  0  0
   -9.7270   -7.7590   -0.3560 O   0  0  0  0  0
   -7.9430   -6.4420   -0.2110 N   0  0  0  0  0
   -7.0340   -7.5900   -0.2660 C   0  0  0  0  0
   -5.5900   -7.1050   -0.1290 C   0  0  0  0  0
   -4.6410   -8.3040   -0.1870 C   0  0  0  0  0
   -3.2180   -7.8250   -0.0520 C   0  0  0  0  0
   -2.9860   -6.6420    0.0770 O   0  0  0  0  0
   -2.2040   -8.7130   -0.0750 N   0  0  0  0  0
   -0.8760   -8.2660    0.0500 C   0  0  0  0  0
   -0.4620   -6.9360    0.2110 C   0  0  0  0  0
    0.2360   -9.0470    0.0440 C   0  0  0  0  0
    0.9140   -6.9460    0.2930 C   0  0  0  0  0
    1.3290   -8.2530    0.1880 N   0  0  0  0  0
    2.7200   -8.7140    0.2300 C   0  0  0  0  0
    1.7790   -5.7740    0.4650 C   0  0  0  0  0
    2.9900   -5.9010    0.4300 O   0  0  0  0  0
    1.2350   -4.5570    0.6610 N   0  0  0  0  0
    2.0590   -3.4180    0.7150 C   0  0  0  0  0
    3.4540   -3.4000    0.5820 C   0  0  0  0  0
    1.6440   -2.1370    0.9000 C   0  0  0  0  0
    3.8560   -2.0860    0.6970 C   0  0  0  0  0
    2.7300   -1.3210    0.8930 N   0  0  0  0  0
    2.7050    0.1340    1.0620 C   0  0  0  0  0
    5.2350   -1.5930    0.6220 C   0  0  0  0  0
    5.4740   -0.4180    0.8320 O   0  0  0  0  0
    6.2390   -2.4410    0.3210 N   0  0  0  0  0
    7.5440   -1.9510    0.1410 C   0  0  0  0  0
    7.9450   -0.6110    0.2440 C   0  0  0  0  0
    8.6450   -2.6900   -0.1590 C   0  0  0  0  0
    9.3010   -0.5730   -0.0060 C   0  0  0  0  0
    9.7170   -1.8610   -0.2520 N   0  0  0  0  0
   11.0890   -2.2710   -0.5590 C   0  0  0  0  0
   10.1480    0.6250   -0.0060 C   0  0  0  0  0
   11.3170    0.5430   -0.3340 O   0  0  0  0  0
    9.6310    1.8160    0.3560 N   0  0  0  0  0
   10.4670    2.9420    0.4610 C   0  0  0  0  0
   11.8480    2.9730    0.2210 C   0  0  0  0  0
   10.0790    4.1980    0.8090 C   0  0  0  0  0
   12.2690    4.2680    0.4380 C   0  0  0  0  0
   11.1680    5.0100    0.7990 N   0  0  0  0  0
   11.1700    6.4400    1.1180 C   0  0  0  0  0
   13.6420    4.7650    0.3050 C   0  0  0  0  0
   13.8750    5.9520    0.4360 O   0  0  0  0  0
   14.6460    3.9070    0.0370 N   0  0  0  0  0
   16.0310    4.3850    0.0120 C   0  0  0  0  0
   16.9670    3.2190   -0.3130 C   0  0  0  0  0
   18.3920    3.7110   -0.3390 C   0  0  0  0  0
   18.6340    4.8780   -0.1180 O   0  0  0  0  0
   19.3960    2.8530   -0.6070 N   0  0  0  0  0
   20.7810    3.3310   -0.6310 C   0  0  0  0  0
   21.7170    2.1650   -0.9570 C   0  0  0  0  0
   23.1630    2.6640   -0.9830 C   0  0  0  0  0
   24.0610    1.5450   -1.2950 N   0  0  0  0  0
   25.4250    2.0230   -1.5620 C   0  0  0  0  0
   24.0550    0.5480   -0.2170 C   0  0  0  0  0
  -21.0760    6.1200   -0.8440 H   0  0  0  0  0
  -18.6840    4.0870   -1.8950 H   0  0  0  0  0
  -17.9880    3.9120   -0.2660 H   0  0  0  0  0
  -19.7510    3.8190   -0.4960 H   0  0  0  0  0
  -20.3920    8.6180   -0.3910 H   0  0  0  0  0
  -15.8320    8.1140    0.0880 H   0  0  0  0  0
  -14.2210    4.6420   -0.2360 H   0  0  0  0  0
  -13.2600    8.7550    0.4960 H   0  0  0  0  0
   -9.9490    6.9830    0.0360 H   0  0  0  0  0
  -10.6670    8.5820    0.3470 H   0  0  0  0  0
  -10.4360    7.4330    1.6870 H   0  0  0  0  0
  -12.7130    3.1030   -0.1850 H   0  0  0  0  0
   -8.9590    3.2490    0.3530 H   0  0  0  0  0
   -7.3900    0.5450    1.4480 H   0  0  0  0  0
   -7.3930   -0.2210   -0.1580 H   0  0  0  0  0
   -6.9610    1.4970    0.0070 H   0  0  0  0  0
  -11.9290   -1.5490   -0.3690 H   0  0  0  0  0
   -8.8140   -3.7750   -0.0630 H   0  0  0  0  0
  -13.0530   -3.9640   -0.6740 H   0  0  0  0  0
  -12.3170   -7.0190   -1.8010 H   0  0  0  0  0
  -11.9200   -7.5360   -0.1450 H   0  0  0  0  0
  -13.3640   -6.5390   -0.4440 H   0  0  0  0  0
   -7.5860   -5.5470   -0.1020 H   0  0  0  0  0
   -7.2660   -8.2760    0.5490 H   0  0  0  0  0
   -7.1560   -8.1050   -1.2190 H   0  0  0  0  0
   -5.3580   -6.4190   -0.9440 H   0  0  0  0  0
   -5.4680   -6.5900    0.8240 H   0  0  0  0  0
   -4.8720   -8.9890    0.6280 H   0  0  0  0  0
   -4.7630   -8.8180   -1.1400 H   0  0  0  0  0
   -2.3900   -9.6590   -0.1780 H   0  0  0  0  0
   -1.1020   -6.0670    0.2610 H   0  0  0  0  0
    0.2490  -10.1220   -0.0590 H   0  0  0  0  0
    3.1560   -8.6420   -0.7660 H   0  0  0  0  0
    3.2880   -8.0910    0.9210 H   0  0  0  0  0
    2.7490   -9.7500    0.5660 H   0  0  0  0  0
    0.2740   -4.4660    0.7640 H   0  0  0  0  0
    4.0940   -4.2550    0.4200 H   0  0  0  0  0
    0.6200   -1.8200    1.0320 H   0  0  0  0  0
    2.8850    0.3820    2.1080 H   0  0  0  0  0
    3.4810    0.5850    0.4430 H   0  0  0  0  0
    1.7310    0.5190    0.7600 H   0  0  0  0  0
    6.0600   -3.3910    0.2290 H   0  0  0  0  0
    7.3120    0.2330    0.4750 H   0  0  0  0  0
    8.6630   -3.7610   -0.2990 H   0  0  0  0  0
   11.2180   -2.3260   -1.6400 H   0  0  0  0  0
   11.7870   -1.5430   -0.1470 H   0  0  0  0  0
   11.2830   -3.2500   -0.1200 H   0  0  0  0  0
    8.6820    1.8960    0.5430 H   0  0  0  0  0
   12.4650    2.1380   -0.0780 H   0  0  0  0  0
    9.0710    4.5000    1.0520 H   0  0  0  0  0
   11.4340    6.5780    2.1660 H   0  0  0  0  0
   11.8980    6.9510    0.4890 H   0  0  0  0  0
   10.1780    6.8540    0.9360 H   0  0  0  0  0
   14.4530    2.9730   -0.1400 H   0  0  0  0  0
   16.1350    5.1580   -0.7490 H   0  0  0  0  0
   16.2900    4.7970    0.9870 H   0  0  0  0  0
   16.8630    2.4460    0.4480 H   0  0  0  0  0
   16.7080    2.8060   -1.2880 H   0  0  0  0  0
   20.8850    4.1040   -1.3920 H   0  0  0  0  0
   21.6120    1.3920   -0.1960 H   0  0  0  0  0
   21.4570    1.7530   -1.9320 H   0  0  0  0  0
   23.2670    3.4380   -1.7440 H   0  0  0  0  0
   23.4220    3.0770   -0.0070 H   0  0  0  0  0
   25.8060    2.5430   -0.6830 H   0  0  0  0  0
   26.0690    1.1750   -1.7910 H   0  0  0  0  0
   25.4100    2.7080   -2.4100 H   0  0  0  0  0
   23.0450    0.1590   -0.0870 H   0  0  0  0  0
   24.7290   -0.2700   -0.4740 H   0  0  0  0  0
   24.3870    1.0130    0.7110 H   0  0  0  0  0
   19.2020    1.9190   -0.7830 H   0  0  0  0  0
   21.0400    3.7430    0.3440 H   0  0  0  0  0
  1  3  2  0  0  0
  1  2  1  0  0  0
  1 94  1  0  0  0
  2  4  2  0  0  0
  3  5  1  0  0  0
  3 90  1  0  0  0
  4  5  1  0  0  0
  4  7  1  0  0  0
  5  6  1  0  0  0
  6 91  1  0  0  0
  6 92  1  0  0  0
  6 93  1  0  0  0
  7  9  1  0  0  0
  7  8  2  0  0  0
  9 10  1  0  0  0
  9 95  1  0  0  0
 10 12  2  0  0  0
 10 11  1  0  0  0
 11 13  2  0  0  0
 11 96  1  0  0  0
 12 14  1  0  0  0
 12 97  1  0  0  0
 13 16  1  0  0  0
 13 14  1  0  0  0
 14 15  1  0  0  0
 15100  1  0  0  0
 15 98  1  0  0  0
 15 99  1  0  0  0
 16 18  1  0  0  0
 16 17  2  0  0  0
 18 19  1  0  0  0
 18101  1  0  0  0
 19 20  1  0  0  0
 19 21  2  0  0  0
 20 22  2  0  0  0
 21 23  1  0  0  0
 21102  1  0  0  0
 22 25  1  0  0  0
 22 23  1  0  0  0
 23 24  1  0  0  0
 24103  1  0  0  0
 24104  1  0  0  0
 24105  1  0  0  0
 25 27  1  0  0  0
 25 26  2  0  0  0
 27 28  1  0  0  0
 27106  1  0  0  0
 28 29  1  0  0  0
 28 30  2  0  0  0
 29 31  2  0  0  0
 29107  1  0  0  0
 30 32  1  0  0  0
 30108  1  0  0  0
 31 34  1  0  0  0
 31 32  1  0  0  0
 32 33  1  0  0  0
 33109  1  0  0  0
 33110  1  0  0  0
 33111  1  0  0  0
 34 36  1  0  0  0
 34 35  2  0  0  0
 36 37  1  0  0  0
 36112  1  0  0  0
 37 38  1  0  0  0
 37113  1  0  0  0
 37114  1  0  0  0
 38 39  1  0  0  0
 38115  1  0  0  0
 38116  1  0  0  0
 39 40  1  0  0  0
 39117  1  0  0  0
 39118  1  0  0  0
 40 42  1  0  0  0
 40 41  2  0  0  0
 42 43  1  0  0  0
 42119  1  0  0  0
 43 45  2  0  0  0
 43 44  1  0  0  0
 44 46  2  0  0  0
 44120  1  0  0  0
 45 47  1  0  0  0
 45121  1  0  0  0
 46 47  1  0  0  0
 46 49  1  0  0  0
 47 48  1  0  0  0
 48122  1  0  0  0
 48123  1  0  0  0
 48124  1  0  0  0
 49 51  1  0  0  0
 49 50  2  0  0  0
 51 52  1  0  0  0
 51125  1  0  0  0
 52 53  1  0  0  0
 52 54  2  0  0  0
 53 55  2  0  0  0
 53126  1  0  0  0
 54 56  1  0  0  0
 54127  1  0  0  0
 55 56  1  0  0  0
 55 58  1  0  0  0
 56 57  1  0  0  0
 57128  1  0  0  0
 57129  1  0  0  0
 57130  1  0  0  0
 58 60  1  0  0  0
 58 59  2  0  0  0
 60 61  1  0  0  0
 60131  1  0  0  0
 61 62  1  0  0  0
 61 63  2  0  0  0
 62 64  2  0  0  0
 62132  1  0  0  0
 63 65  1  0  0  0
 63133  1  0  0  0
 64 67  1  0  0  0
 64 65  1  0  0  0
 65 66  1  0  0  0
 66134  1  0  0  0
 66135  1  0  0  0
 66136  1  0  0  0
 67 68  2  0  0  0
 67 69  1  0  0  0
 69 70  1  0  0  0
 69137  1  0  0  0
 70 71  1  0  0  0
 70 72  2  0  0  0
 71 73  2  0  0  0
 71138  1  0  0  0
 72 74  1  0  0  0
 72139  1  0  0  0
 73 74  1  0  0  0
 73 76  1  0  0  0
 74 75  1  0  0  0
 75140  1  0  0  0
 75141  1  0  0  0
 75142  1  0  0  0
 76 78  1  0  0  0
 76 77  2  0  0  0
 78 79  1  0  0  0
 78143  1  0  0  0
 79 80  1  0  0  0
 79145  1  0  0  0
 79144  1  0  0  0
 80 81  1  0  0  0
 80146  1  0  0  0
 80147  1  0  0  0
 81 83  1  0  0  0
 81 82  2  0  0  0
 83 84  1  0  0  0
 83159  1  0  0  0
 84 85  1  0  0  0
 84148  1  0  0  0
 84160  1  0  0  0
 85 86  1  0  0  0
 85149  1  0  0  0
 85150  1  0  0  0
 86 87  1  0  0  0
 86151  1  0  0  0
 86152  1  0  0  0
 87 88  1  0  0  0
 87 89  1  0  0  0
 88153  1  0  0  0
 88154  1  0  0  0
 88155  1  0  0  0
 89156  1  0  0  0
 89157  1  0  0  0
 89158  1  0  0  0
M  END
$$$$
