1UD
  CCTOOLS-0919241035

 53 56  0  0  1  0  0  0  0  0999 V2000
    3.4590   -0.8630   -0.0030 C   0  0  0  0  0
    3.9240    0.4040   -0.3510 C   0  0  0  0  0
    3.0730    1.4860   -0.2700 C   0  0  0  0  0
    1.7400    1.3190    0.1610 C   0  0  0  0  0
    1.2690    0.0530    0.5090 C   0  0  0  0  0
   -0.1550   -0.1260    0.9690 C   0  0  0  0  0
   -1.0490   -0.4080   -0.2400 C   0  0  0  0  0
    2.1190   -1.0430    0.4250 C   0  0  0  0  0
    1.6950   -2.2900    0.7560 N   0  0  0  0  0
    2.4900   -3.3250    0.6780 C   0  0  0  0  0
    1.9950   -4.5570    1.0280 N   0  0  0  0  0
    3.7890   -3.2390    0.2660 N   0  0  0  0  0
    4.3260   -2.0450   -0.0740 C   0  0  0  0  0
    5.4840   -1.9560   -0.4390 O   0  0  0  0  0
    3.2230    2.8420   -0.5360 N   0  0  0  0  0
    1.1580    2.5460    0.1370 N   0  0  0  0  0
    2.0250    3.4400   -0.2710 C   0  0  0  0  0
    1.7660    4.7840   -0.4120 N   0  0  0  0  0
    2.8210    5.6890   -0.8780 C   0  0  0  0  0
   -4.4500    0.5200    0.6920 C   0  0  0  0  0
   -5.0690    1.8080    0.7250 O   0  0  0  0  0
   -4.9580    2.4740    1.9840 C   0  0  0  0  0
   -3.0130    0.6510    0.7540 O   0  0  0  0  0
   -2.4950   -0.5900    0.2270 C   0  0  0  0  0
   -3.4100   -0.9220   -0.9730 C   0  0  0  0  0
   -3.6400   -2.3300   -1.0520 O   0  0  0  0  0
   -3.8560   -2.8100   -2.3810 C   0  0  0  0  0
   -4.7260   -0.1750   -0.6600 C   0  0  0  0  0
   -5.8090   -1.0990   -0.5360 O   0  0  0  0  0
    4.9430    0.5370   -0.6800 H   0  0  0  0  0
   -0.2090   -0.9630    1.6650 H   0  0  0  0  0
   -0.4930    0.7830    1.4660 H   0  0  0  0  0
   -0.9950    0.4290   -0.9360 H   0  0  0  0  0
   -0.7110   -1.3170   -0.7380 H   0  0  0  0  0
    1.0750   -4.6450    1.3230 H   0  0  0  0  0
    2.5650   -5.3410    0.9790 H   0  0  0  0  0
    4.3350   -4.0400    0.2280 H   0  0  0  0  0
    4.0290    3.2800   -0.8510 H   0  0  0  0  0
    0.8860    5.1330   -0.2030 H   0  0  0  0  0
    3.6620    5.6530   -0.1850 H   0  0  0  0  0
    3.1530    5.3800   -1.8690 H   0  0  0  0  0
    2.4320    6.7060   -0.9260 H   0  0  0  0  0
   -4.8100   -0.0960    1.5160 H   0  0  0  0  0
   -5.4320    1.8700    2.7580 H   0  0  0  0  0
   -3.9060    2.6170    2.2290 H   0  0  0  0  0
   -5.4520    3.4440    1.9270 H   0  0  0  0  0
   -2.5540   -1.3760    0.9800 H   0  0  0  0  0
   -2.9710   -0.5550   -1.9010 H   0  0  0  0  0
   -4.7290   -2.3160   -2.8080 H   0  0  0  0  0
   -2.9800   -2.5920   -2.9920 H   0  0  0  0  0
   -4.0230   -3.8860   -2.3560 H   0  0  0  0  0
   -4.9410    0.5640   -1.4320 H   0  0  0  0  0
   -6.6470   -0.6900   -0.2810 H   0  0  0  0  0
  1 13  1  0  0  0
  2  1  2  0  0  0
  2 30  1  0  0  0
  3  2  1  0  0  0
  4  3  2  0  0  0
  4  5  1  0  0  0
  5  8  2  0  0  0
  6  5  1  0  0  0
  6 31  1  0  0  0
  6 32  1  0  0  0
  7  6  1  0  0  0
  7 33  1  0  0  0
  7 34  1  0  0  0
  8  1  1  0  0  0
  8  9  1  0  0  0
  9 10  2  0  0  0
 10 12  1  0  0  0
 10 11  1  0  0  0
 11 35  1  0  0  0
 11 36  1  0  0  0
 12 37  1  0  0  0
 13 14  2  0  0  0
 13 12  1  0  0  0
 15  3  1  0  0  0
 15 38  1  0  0  0
 16  4  1  0  0  0
 17 16  2  0  0  0
 17 15  1  0  0  0
 18 17  1  0  0  0
 18 39  1  0  0  0
 19 18  1  0  0  0
 19 40  1  0  0  0
 19 41  1  0  0  0
 19 42  1  0  0  0
 20 28  1  0  0  0
 20 23  1  0  0  0
 20 43  1  0  0  0
 21 20  1  0  0  0
 22 21  1  0  0  0
 22 44  1  0  0  0
 22 45  1  0  0  0
 22 46  1  0  0  0
 23 24  1  0  0  0
 24  7  1  0  0  0
 24 47  1  0  0  0
 25 24  1  0  0  0
 25 26  1  0  0  0
 25 48  1  0  0  0
 26 27  1  0  0  0
 27 49  1  0  0  0
 27 50  1  0  0  0
 27 51  1  0  0  0
 28 29  1  0  0  0
 28 25  1  0  0  0
 28 52  1  0  0  0
 29 53  1  0  0  0
M  END
$$$$
