1WJ
  CCTOOLS-0919241036

 53 56  0  0  1  0  0  0  0  0999 V2000
    3.6020   -0.8240   -0.0710 C   0  0  0  0  0
    4.0270    0.4720   -0.3570 C   0  0  0  0  0
    3.1400    1.5210   -0.2360 C   0  0  0  0  0
    1.8100    1.2910    0.1760 C   0  0  0  0  0
    1.3800   -0.0040    0.4630 C   0  0  0  0  0
   -0.0410   -0.2500    0.9030 C   0  0  0  0  0
   -0.9170   -0.5080   -0.3250 C   0  0  0  0  0
    2.2660   -1.0660    0.3380 C   0  0  0  0  0
    4.5100   -1.9720   -0.1850 C   0  0  0  0  0
    1.8820   -2.3400    0.6090 N   0  0  0  0  0
    2.7110   -3.3450    0.4920 C   0  0  0  0  0
    2.2550   -4.6070    0.7820 N   0  0  0  0  0
    4.0150   -3.1950    0.1120 N   0  0  0  0  0
    5.6670   -1.8290   -0.5360 O   0  0  0  0  0
    3.2470    2.8910   -0.4410 N   0  0  0  0  0
    1.1880    2.4970    0.2010 N   0  0  0  0  0
    2.0280    3.4370   -0.1600 C   0  0  0  0  0
    1.7250    4.7770   -0.2430 N   0  0  0  0  0
    2.7510    5.7360   -0.6590 C   0  0  0  0  0
   -4.3530    0.2650    0.6180 C   0  0  0  0  0
   -5.0150    1.5280    0.7050 O   0  0  0  0  0
   -4.8750    2.1710    1.9740 C   0  0  0  0  0
   -2.9210    0.4400    0.6980 O   0  0  0  0  0
   -2.3590   -0.7580    0.1210 C   0  0  0  0  0
   -3.2530   -1.0660   -1.1000 C   0  0  0  0  0
   -3.4360   -2.4770   -1.2430 O   0  0  0  0  0
   -4.5950   -0.3780   -0.7650 C   0  0  0  0  0
   -5.6480   -1.3420   -0.6920 O   0  0  0  0  0
   -6.9440   -0.8100   -0.9740 C   0  0  0  0  0
    5.0440    0.6540   -0.6720 H   0  0  0  0  0
   -0.0720   -1.1190    1.5600 H   0  0  0  0  0
   -0.4120    0.6240    1.4370 H   0  0  0  0  0
   -0.8850    0.3610   -0.9830 H   0  0  0  0  0
   -0.5450   -1.3820   -0.8600 H   0  0  0  0  0
    1.3370   -4.7370    1.0660 H   0  0  0  0  0
    2.8510   -5.3680    0.7030 H   0  0  0  0  0
    4.5880   -3.9750    0.0460 H   0  0  0  0  0
    4.0390    3.3700   -0.7290 H   0  0  0  0  0
    0.8310    5.0870   -0.0250 H   0  0  0  0  0
    3.5880    5.6980    0.0380 H   0  0  0  0  0
    3.1010    5.4830   -1.6600 H   0  0  0  0  0
    2.3290    6.7410   -0.6650 H   0  0  0  0  0
   -4.6980   -0.3990    1.4110 H   0  0  0  0  0
   -5.2940    1.5350    2.7530 H   0  0  0  0  0
   -3.8190    2.3470    2.1780 H   0  0  0  0  0
   -5.4050    3.1240    1.9590 H   0  0  0  0  0
   -2.3960   -1.5780    0.8380 H   0  0  0  0  0
   -2.8210   -0.6440   -2.0070 H   0  0  0  0  0
   -3.9900   -2.7270   -1.9950 H   0  0  0  0  0
   -4.8280    0.3870   -1.5060 H   0  0  0  0  0
   -6.9560   -0.3970   -1.9820 H   0  0  0  0  0
   -7.6870   -1.6040   -0.8970 H   0  0  0  0  0
   -7.1780   -0.0230   -0.2560 H   0  0  0  0  0
  1  9  1  0  0  0
  2  1  2  0  0  0
  2 30  1  0  0  0
  3  2  1  0  0  0
  4  3  2  0  0  0
  4  5  1  0  0  0
  5  8  2  0  0  0
  6  5  1  0  0  0
  6 31  1  0  0  0
  6 32  1  0  0  0
  7  6  1  0  0  0
  7 33  1  0  0  0
  7 34  1  0  0  0
  8  1  1  0  0  0
  8 10  1  0  0  0
  9 14  2  0  0  0
  9 13  1  0  0  0
 10 11  2  0  0  0
 11 13  1  0  0  0
 11 12  1  0  0  0
 12 35  1  0  0  0
 12 36  1  0  0  0
 13 37  1  0  0  0
 15  3  1  0  0  0
 15 38  1  0  0  0
 16  4  1  0  0  0
 17 16  2  0  0  0
 17 15  1  0  0  0
 18 17  1  0  0  0
 18 39  1  0  0  0
 19 18  1  0  0  0
 19 40  1  0  0  0
 19 41  1  0  0  0
 19 42  1  0  0  0
 20 23  1  0  0  0
 20 43  1  0  0  0
 21 20  1  0  0  0
 22 21  1  0  0  0
 22 44  1  0  0  0
 22 45  1  0  0  0
 22 46  1  0  0  0
 23 24  1  0  0  0
 24  7  1  0  0  0
 24 47  1  0  0  0
 25 26  1  0  0  0
 25 24  1  0  0  0
 25 48  1  0  0  0
 26 49  1  0  0  0
 27 20  1  0  0  0
 27 25  1  0  0  0
 27 28  1  0  0  0
 27 50  1  0  0  0
 29 28  1  0  0  0
 29 51  1  0  0  0
 29 52  1  0  0  0
 29 53  1  0  0  0
M  END
$$$$
