1WK
  CCTOOLS-0919241036

 50 53  0  0  1  0  0  0  0  0999 V2000
    3.3780   -0.7430   -0.0390 C   0  0  0  0  0
    3.7710    0.5670   -0.3060 C   0  0  0  0  0
    2.8520    1.5900   -0.1910 C   0  0  0  0  0
    1.5220    1.3180    0.1930 C   0  0  0  0  0
    1.1240    0.0090    0.4610 C   0  0  0  0  0
   -0.2970   -0.2820    0.8720 C   0  0  0  0  0
   -1.1430   -0.5520   -0.3740 C   0  0  0  0  0
    2.0420   -1.0270    0.3430 C   0  0  0  0  0
    4.3190   -1.8640   -0.1470 C   0  0  0  0  0
    1.6890   -2.3140    0.5950 N   0  0  0  0  0
    2.5490   -3.2930    0.4850 C   0  0  0  0  0
    2.1230   -4.5700    0.7550 N   0  0  0  0  0
    3.8540   -3.1040    0.1300 N   0  0  0  0  0
    5.4780   -1.6850   -0.4750 O   0  0  0  0  0
    2.9240    2.9640   -0.3820 N   0  0  0  0  0
    0.8660    2.5060    0.2180 N   0  0  0  0  0
    1.6850    3.4720   -0.1180 C   0  0  0  0  0
    1.3460    4.8040   -0.1950 N   0  0  0  0  0
    2.3520    5.7950   -0.5830 C   0  0  0  0  0
   -4.8100   -0.6040   -0.9190 C   0  0  0  0  0
   -5.8210   -1.6100   -0.8330 O   0  0  0  0  0
   -3.4300   -1.2460   -1.1870 C   0  0  0  0  0
   -3.5470   -2.6680   -1.2740 O   0  0  0  0  0
   -2.5850   -0.8470    0.0430 C   0  0  0  0  0
   -3.2160    0.3480    0.5520 O   0  0  0  0  0
   -4.6350    0.1060    0.4410 C   0  0  0  0  0
   -5.3530    1.3420    0.4530 O   0  0  0  0  0
   -5.3380    2.0110    1.7150 C   0  0  0  0  0
    4.7880    0.7800   -0.6000 H   0  0  0  0  0
   -0.3150   -1.1570    1.5210 H   0  0  0  0  0
   -0.7030    0.5770    1.4080 H   0  0  0  0  0
   -1.1240    0.3230   -1.0230 H   0  0  0  0  0
   -0.7370   -1.4100   -0.9090 H   0  0  0  0  0
    1.2040   -4.7290    1.0210 H   0  0  0  0  0
    2.7420   -5.3140    0.6800 H   0  0  0  0  0
    4.4500   -3.8660    0.0680 H   0  0  0  0  0
    3.7080    3.4680   -0.6510 H   0  0  0  0  0
    0.4400    5.0870    0.0090 H   0  0  0  0  0
    1.9020    6.7880   -0.5880 H   0  0  0  0  0
    3.1770    5.7740    0.1290 H   0  0  0  0  0
    2.7270    5.5620   -1.5800 H   0  0  0  0  0
   -5.0530    0.1170   -1.6990 H   0  0  0  0  0
   -6.6970   -1.2680   -0.6070 H   0  0  0  0  0
   -2.9920   -0.8430   -2.1000 H   0  0  0  0  0
   -4.1170   -2.9720   -1.9940 H   0  0  0  0  0
   -2.6080   -1.6390    0.7920 H   0  0  0  0  0
   -4.9750   -0.5380    1.2520 H   0  0  0  0  0
   -5.9040    2.9400    1.6410 H   0  0  0  0  0
   -5.7900    1.3700    2.4720 H   0  0  0  0  0
   -4.3080    2.2350    1.9960 H   0  0  0  0  0
  1  9  1  0  0  0
  2  1  2  0  0  0
  2 29  1  0  0  0
  3  2  1  0  0  0
  4  3  2  0  0  0
  4  5  1  0  0  0
  5  8  2  0  0  0
  6  5  1  0  0  0
  6 30  1  0  0  0
  6 31  1  0  0  0
  7  6  1  0  0  0
  7 32  1  0  0  0
  7 33  1  0  0  0
  8  1  1  0  0  0
  8 10  1  0  0  0
  9 14  2  0  0  0
  9 13  1  0  0  0
 10 11  2  0  0  0
 11 13  1  0  0  0
 11 12  1  0  0  0
 12 34  1  0  0  0
 12 35  1  0  0  0
 13 36  1  0  0  0
 15  3  1  0  0  0
 15 37  1  0  0  0
 16  4  1  0  0  0
 17 16  2  0  0  0
 17 15  1  0  0  0
 18 17  1  0  0  0
 18 38  1  0  0  0
 19 18  1  0  0  0
 19 39  1  0  0  0
 19 40  1  0  0  0
 19 41  1  0  0  0
 20 26  1  0  0  0
 20 22  1  0  0  0
 20 21  1  0  0  0
 20 42  1  0  0  0
 21 43  1  0  0  0
 22 23  1  0  0  0
 22 24  1  0  0  0
 22 44  1  0  0  0
 23 45  1  0  0  0
 24  7  1  0  0  0
 24 46  1  0  0  0
 25 24  1  0  0  0
 26 25  1  0  0  0
 26 47  1  0  0  0
 27 28  1  0  0  0
 27 26  1  0  0  0
 28 48  1  0  0  0
 28 49  1  0  0  0
 28 50  1  0  0  0
M  END
$$$$
