1YO
  CCTOOLS-0919241036

 27 28  0  0  0  0  0  0  0  0999 V2000
    1.9790    2.0850   -0.9620 C   0  0  0  0  0
    4.6010   -0.4980   -0.1170 C   0  0  0  0  0
    3.8930   -1.3490    0.7100 C   0  0  0  0  0
    3.9810    0.6130   -0.6590 C   0  0  0  0  0
    2.5640   -1.0920    0.9920 C   0  0  0  0  0
   -4.2930    0.2160    0.3150 C   0  0  0  0  0
    0.4930    0.2920    0.7490 C   0  0  0  0  0
    2.6540    0.8730   -0.3720 C   0  0  0  0  0
    1.9430    0.0160    0.4470 C   0  0  0  0  0
   -2.1410   -0.0410    0.0890 C   0  0  0  0  0
   -3.5490   -1.1400   -1.5820 N   0  0  0  0  0
   -3.6700    0.8470    1.2700 N   0  0  0  0  0
   -2.4000    0.6990    1.1420 N   0  0  0  0  0
   -3.3420   -0.3770   -0.4680 N   0  0  0  0  0
   -0.5470   -0.5160   -0.4910 S   0  0  0  0  0
    1.5310    1.8210   -1.9200 H   0  0  0  0  0
    1.2030    2.4350   -0.2820 H   0  0  0  0  0
    2.7160    2.8750   -1.1110 H   0  0  0  0  0
    5.6390   -0.6990   -0.3390 H   0  0  0  0  0
    4.3770   -2.2160    1.1350 H   0  0  0  0  0
    4.5340    1.2780   -1.3060 H   0  0  0  0  0
    2.0110   -1.7580    1.6380 H   0  0  0  0  0
   -5.3620    0.1670    0.1720 H   0  0  0  0  0
    0.2480   -0.0960    1.7380 H   0  0  0  0  0
    0.3160    1.3680    0.7270 H   0  0  0  0  0
   -3.5640   -0.5690   -2.4140 H   0  0  0  0  0
   -2.8550   -1.8690   -1.6550 H   0  0  0  0  0
  1  8  1  0  0  0
  1 16  1  0  0  0
  1 17  1  0  0  0
  1 18  1  0  0  0
  2  3  2  0  0  0
  2 19  1  0  0  0
  3 20  1  0  0  0
  4  2  1  0  0  0
  4 21  1  0  0  0
  5  3  1  0  0  0
  5 22  1  0  0  0
  6 12  2  0  0  0
  6 23  1  0  0  0
  7 24  1  0  0  0
  7 25  1  0  0  0
  8  4  2  0  0  0
  8  9  1  0  0  0
  9  7  1  0  0  0
  9  5  2  0  0  0
 10 13  2  0  0  0
 11 14  1  0  0  0
 11 26  1  0  0  0
 11 27  1  0  0  0
 12 13  1  0  0  0
 14  6  1  0  0  0
 14 10  1  0  0  0
 15 10  1  0  0  0
 15  7  1  0  0  0
M  END
$$$$
