200
  CCTOOLS-1004241123

 23 23  0  0  1  0  0  0  0  0999 V2000
   -1.9480    1.4530   -0.8120 N   0  0  0  0  0
   -2.1970    0.0590   -0.4220 C   0  0  0  0  0
   -3.6690   -0.1340   -0.1610 C   0  0  0  0  0
   -4.3720    0.8210    0.0710 O   0  0  0  0  0
   -4.1990   -1.3670   -0.1850 O   0  0  0  0  0
   -1.4070   -0.2640    0.8480 C   0  0  0  0  0
    0.0690   -0.1910    0.5530 C   0  0  0  0  0
    0.7460   -1.3190    0.1290 C   0  0  0  0  0
    0.7470    1.0040    0.7130 C   0  0  0  0  0
    2.0990   -1.2500   -0.1460 C   0  0  0  0  0
    2.1000    1.0720    0.4430 C   0  0  0  0  0
    2.7780   -0.0550    0.0130 C   0  0  0  0  0
    4.4780    0.0300   -0.3260 CL  0  0  0  0  0
   -2.2540    2.0290   -0.0420 H   0  0  0  0  0
   -2.5640    1.6520   -1.5860 H   0  0  0  0  0
   -1.8810   -0.6050   -1.2260 H   0  0  0  0  0
   -5.1430   -1.4910   -0.0170 H   0  0  0  0  0
   -1.6590    0.4560    1.6260 H   0  0  0  0  0
   -1.6600   -1.2690    1.1870 H   0  0  0  0  0
    0.2160   -2.2510    0.0040 H   0  0  0  0  0
    0.2180    1.8840    1.0490 H   0  0  0  0  0
    2.6270   -2.1310   -0.4820 H   0  0  0  0  0
    2.6300    2.0050    0.5670 H   0  0  0  0  0
  1  2  1  0  0  0
  1 14  1  0  0  0
  1 15  1  0  0  0
  2  3  1  0  0  0
  2  6  1  0  0  0
  2 16  1  0  0  0
  3  4  2  0  0  0
  3  5  1  0  0  0
  5 17  1  0  0  0
  6  7  1  0  0  0
  6 18  1  0  0  0
  6 19  1  0  0  0
  7  8  1  0  0  0
  7  9  2  0  0  0
  8 10  2  0  0  0
  8 20  1  0  0  0
  9 11  1  0  0  0
  9 21  1  0  0  0
 10 12  1  0  0  0
 10 22  1  0  0  0
 11 12  2  0  0  0
 11 23  1  0  0  0
 12 13  1  0  0  0
M  END
$$$$
