210
  CCTOOLS-0919241036

 24 23  0  0  0  0  0  0  0  0999 V2000
   -1.4400   -0.6310   -0.1730 P   0  0  0  0  0
   -1.4730    0.1580   -1.5760 O   0  0  0  0  0
   -2.7810   -0.3070    0.6570 O   0  0  0  0  0
   -1.3570   -2.0870   -0.4270 O   0  0  0  0  0
    0.0140   -0.0990    0.7900 C   0  0  0  0  0
    1.5320   -0.4660   -0.1490 P   0  0  0  0  0
    1.6970   -1.9320   -0.2670 O   0  0  0  0  0
    1.4240    0.1820   -1.6190 O   0  0  0  0  0
    2.8020    0.1570    0.6190 O   0  0  0  0  0
    0.0430   -0.7990    2.0360 O   0  0  0  0  0
   -0.0720    1.4060    1.0530 C   0  0  0  0  0
   -0.2210    2.1490   -0.2770 C   0  0  0  0  0
   -0.1650    3.5970   -0.0380 N   0  0  0  0  0
   -2.2550   -0.1520   -2.0520 H   0  0  0  0  0
   -2.7960    0.6490    0.8010 H   0  0  0  0  0
    2.2450   -0.0360   -2.0810 H   0  0  0  0  0
    2.6960    1.1180    0.6020 H   0  0  0  0  0
   -0.7760   -0.5770    2.5000 H   0  0  0  0  0
    0.8360    1.7400    1.5560 H   0  0  0  0  0
   -0.9350    1.6160    1.6850 H   0  0  0  0  0
   -1.1780    1.8920   -0.7310 H   0  0  0  0  0
    0.5890    1.8600   -0.9470 H   0  0  0  0  0
   -0.2670    4.0430   -0.9370 H   0  0  0  0  0
   -0.9870    3.8340    0.4980 H   0  0  0  0  0
  1  2  1  0  0  0
  1  3  1  0  0  0
  1  4  2  0  0  0
  1  5  1  0  0  0
  2 14  1  0  0  0
  3 15  1  0  0  0
  5  6  1  0  0  0
  5 10  1  0  0  0
  5 11  1  0  0  0
  6  7  2  0  0  0
  6  8  1  0  0  0
  6  9  1  0  0  0
  8 16  1  0  0  0
  9 17  1  0  0  0
 10 18  1  0  0  0
 11 12  1  0  0  0
 11 19  1  0  0  0
 11 20  1  0  0  0
 12 13  1  0  0  0
 12 21  1  0  0  0
 12 22  1  0  0  0
 13 23  1  0  0  0
 13 24  1  0  0  0
M  END
$$$$
