22J
  CCTOOLS-0919241036

 26 26  0  0  1  0  0  0  0  0999 V2000
    4.0560    1.2770    0.8650 O   0  0  0  0  0
    4.1190    0.6370   -0.1640 C   0  0  0  0  0
    5.1660    0.7980   -0.9930 O   0  0  0  0  0
    3.0380   -0.3340   -0.5060 C   0  0  0  0  0
    3.1010   -0.9750   -1.5350 O   0  0  0  0  0
    1.9010   -0.5140    0.4010 C   0  0  0  0  0
    0.9330   -1.3830    0.0940 C   0  0  0  0  0
   -0.2370   -1.5680    1.0260 C   0  0  0  0  0
   -0.1460   -0.6480    2.0770 F   0  0  0  0  0
   -1.5210   -1.3430    0.2710 C   0  0  0  0  0
   -2.1200   -2.2860   -0.2010 O   0  0  0  0  0
   -2.0480    0.0190    0.1080 C   0  0  0  0  0
   -1.3580    1.1110    0.6460 C   0  0  0  0  0
   -1.8580    2.3850    0.4880 C   0  0  0  0  0
   -3.0420    2.5890   -0.2010 C   0  0  0  0  0
   -3.7330    1.5180   -0.7370 C   0  0  0  0  0
   -3.2430    0.2330   -0.5940 C   0  0  0  0  0
   -3.9150   -0.8120   -1.1230 F   0  0  0  0  0
    5.8430    1.4360   -0.7270 H   0  0  0  0  0
    1.8450    0.0560    1.3160 H   0  0  0  0  0
    0.9890   -1.9530   -0.8220 H   0  0  0  0  0
   -0.2240   -2.5810    1.4280 H   0  0  0  0  0
   -0.4340    0.9550    1.1840 H   0  0  0  0  0
   -1.3250    3.2270    0.9030 H   0  0  0  0  0
   -3.4280    3.5900   -0.3200 H   0  0  0  0  0
   -4.6560    1.6860   -1.2720 H   0  0  0  0  0
  1  2  2  0  0  0
  2  3  1  0  0  0
  2  4  1  0  0  0
  3 19  1  0  0  0
  4  5  2  0  0  0
  6  4  1  0  0  0
  6  7  2  0  0  0
  6 20  1  0  0  0
  7 21  1  0  0  0
  8 10  1  0  0  0
  8  7  1  0  0  0
  8 22  1  0  0  0
  9  8  1  0  0  0
 10 12  1  0  0  0
 10 11  2  0  0  0
 12 17  2  0  0  0
 13 14  2  0  0  0
 13 12  1  0  0  0
 13 23  1  0  0  0
 14 15  1  0  0  0
 14 24  1  0  0  0
 15 16  2  0  0  0
 15 25  1  0  0  0
 16 26  1  0  0  0
 17 16  1  0  0  0
 17 18  1  0  0  0
M  END
$$$$
