22M
  CCTOOLS-0919241036

 34 36  0  0  0  0  0  0  0  0999 V2000
   -3.1970   -1.3360    0.4330 C   0  0  0  0  0
   -3.3300   -0.0220   -0.0330 C   0  0  0  0  0
   -4.6760    0.5620   -0.2140 C   0  0  0  0  0
   -4.8040    1.7850   -0.6470 N   0  0  0  0  0
   -5.7970   -0.1860    0.0760 N   0  0  0  0  0
   -2.2010    0.7370   -0.3270 C   0  0  0  0  0
   -0.9390    0.1870   -0.1560 C   0  0  0  0  0
   -0.8150   -1.1360    0.3130 C   0  0  0  0  0
   -1.9620   -1.8860    0.6040 C   0  0  0  0  0
    0.5720   -1.4180    0.3800 C   0  0  0  0  0
    1.2410   -0.3100   -0.0240 C   0  0  0  0  0
    2.7120   -0.1790   -0.1010 C   0  0  0  0  0
    3.4770   -1.1980   -0.6710 C   0  0  0  0  0
    4.8490   -1.0700   -0.7400 C   0  0  0  0  0
    5.4660    0.0680   -0.2520 C   0  0  0  0  0
    4.7130    1.0840    0.3090 C   0  0  0  0  0
    3.3400    0.9690    0.3840 C   0  0  0  0  0
    2.5210    2.0770    0.9950 C   0  0  0  0  0
    0.3370    0.6720   -0.3560 N   0  0  0  0  0
   -4.0790   -1.9170    0.6580 H   0  0  0  0  0
   -5.6870    2.1680   -0.7650 H   0  0  0  0  0
   -5.7020   -1.0960    0.3990 H   0  0  0  0  0
   -6.6800    0.1970   -0.0420 H   0  0  0  0  0
   -2.3060    1.7510   -0.6860 H   0  0  0  0  0
   -1.8680   -2.8990    0.9650 H   0  0  0  0  0
    1.0170   -2.3490    0.6980 H   0  0  0  0  0
    2.9970   -2.0870   -1.0530 H   0  0  0  0  0
    5.4420   -1.8600   -1.1770 H   0  0  0  0  0
    6.5400    0.1640   -0.3090 H   0  0  0  0  0
    5.2010    1.9700    0.6880 H   0  0  0  0  0
    2.1560    2.7350    0.2070 H   0  0  0  0  0
    1.6750    1.6490    1.5320 H   0  0  0  0  0
    3.1410    2.6470    1.6870 H   0  0  0  0  0
    0.5590    1.5600   -0.6770 H   0  0  0  0  0
  1  2  1  0  0  0
  1  9  2  0  0  0
  1 20  1  0  0  0
  2  3  1  0  0  0
  2  6  2  0  0  0
  3  4  2  0  0  0
  3  5  1  0  0  0
  4 21  1  0  0  0
  5 22  1  0  0  0
  5 23  1  0  0  0
  6  7  1  0  0  0
  6 24  1  0  0  0
  7  8  2  0  0  0
  7 19  1  0  0  0
  8  9  1  0  0  0
  8 10  1  0  0  0
  9 25  1  0  0  0
 10 11  2  0  0  0
 10 26  1  0  0  0
 11 12  1  0  0  0
 11 19  1  0  0  0
 12 13  2  0  0  0
 12 17  1  0  0  0
 13 14  1  0  0  0
 13 27  1  0  0  0
 14 15  2  0  0  0
 14 28  1  0  0  0
 15 16  1  0  0  0
 15 29  1  0  0  0
 16 17  2  0  0  0
 16 30  1  0  0  0
 17 18  1  0  0  0
 18 31  1  0  0  0
 18 32  1  0  0  0
 18 33  1  0  0  0
 19 34  1  0  0  0
M  END
$$$$
