233
  CCTOOLS-0919241036

 50 50  0  0  1  0  0  0  0  0999 V2000
    0.3590    0.1600   -3.1620 C   0  0  0  0  0
    1.4610   -0.0610   -4.2010 C   0  0  0  0  0
    1.0630    0.6330   -5.5080 C   0  0  0  0  0
   -0.3280    0.1400   -5.9190 C   0  0  0  0  0
   -1.2950    0.3450   -4.7510 C   0  0  0  0  0
   -2.6950   -0.1130   -5.1650 C   0  0  0  0  0
    2.6890    0.4910   -3.7200 O   0  0  0  0  0
    2.0070    0.3140   -6.5310 O   0  0  0  0  0
   -0.2660   -1.2480   -6.2510 O   0  0  0  0  0
   -0.8610   -0.4140   -3.6250 O   0  0  0  0  0
   -3.6020    0.0830   -4.0780 O   0  0  0  0  0
    0.7460   -0.4710   -1.8990 N   0  0  0  0  0
   -0.3850    1.0300   -0.7220 O   0  0  0  0  0
    0.3190    0.0430   -0.7290 C   0  0  0  0  0
    0.7180   -0.6070    0.5700 C   0  0  0  0  0
    0.1040    0.1680    1.7380 C   0  0  0  0  0
    0.5090   -0.4910    3.0570 C   0  0  0  0  0
   -0.1040    0.2840    4.2250 C   0  0  0  0  0
    0.3000   -0.3750    5.5440 C   0  0  0  0  0
   -0.2870    0.3670    6.6620 N   0  0  0  0  0
   -0.0640   -0.0340    7.9290 C   0  0  0  0  0
    0.6230   -1.0120    8.1450 O   0  0  0  0  0
   -0.6040    0.6480    8.9570 O   0  0  0  0  0
   -0.3640    0.2150   10.3220 C   0  0  0  0  0
    0.2200    1.2290   -3.0040 H   0  0  0  0  0
    1.5870   -1.1290   -4.3790 H   0  0  0  0  0
    1.0390    1.7130   -5.3560 H   0  0  0  0  0
   -0.6750    0.7070   -6.7840 H   0  0  0  0  0
   -1.3240    1.4020   -4.4860 H   0  0  0  0  0
   -3.0280    0.4660   -6.0260 H   0  0  0  0  0
   -2.6670   -1.1710   -5.4280 H   0  0  0  0  0
    2.9020    0.0260   -2.8990 H   0  0  0  0  0
    2.8660    0.6410   -6.2310 H   0  0  0  0  0
    0.3520   -1.3310   -6.9890 H   0  0  0  0  0
   -4.4690   -0.2180   -4.3800 H   0  0  0  0  0
    1.3100   -1.2610   -1.9040 H   0  0  0  0  0
    1.8040   -0.6010    0.6610 H   0  0  0  0  0
    0.3570   -1.6350    0.5880 H   0  0  0  0  0
   -0.9810    0.1630    1.6470 H   0  0  0  0  0
    0.4650    1.1970    1.7200 H   0  0  0  0  0
    1.5950   -0.4860    3.1480 H   0  0  0  0  0
    0.1480   -1.5190    3.0750 H   0  0  0  0  0
   -1.1900    0.2790    4.1340 H   0  0  0  0  0
    0.2560    1.3120    4.2070 H   0  0  0  0  0
    1.3860   -0.3700    5.6350 H   0  0  0  0  0
   -0.0600   -1.4030    5.5620 H   0  0  0  0  0
   -0.8360    1.1480    6.4900 H   0  0  0  0  0
   -0.8780    0.8850   11.0110 H   0  0  0  0  0
   -0.7410   -0.7980   10.4530 H   0  0  0  0  0
    0.7060    0.2340   10.5260 H   0  0  0  0  0
  1  2  1  0  0  0
  1 10  1  0  0  0
  1 12  1  0  0  0
  1 25  1  0  0  0
  2  3  1  0  0  0
  2  7  1  0  0  0
  2 26  1  0  0  0
  3  4  1  0  0  0
  3  8  1  0  0  0
  3 27  1  0  0  0
  4  5  1  0  0  0
  4  9  1  0  0  0
  4 28  1  0  0  0
  5  6  1  0  0  0
  5 10  1  0  0  0
  5 29  1  0  0  0
  6 11  1  0  0  0
  6 30  1  0  0  0
  6 31  1  0  0  0
  7 32  1  0  0  0
  8 33  1  0  0  0
  9 34  1  0  0  0
 11 35  1  0  0  0
 12 14  1  0  0  0
 12 36  1  0  0  0
 13 14  2  0  0  0
 14 15  1  0  0  0
 15 16  1  0  0  0
 15 37  1  0  0  0
 15 38  1  0  0  0
 16 17  1  0  0  0
 16 39  1  0  0  0
 16 40  1  0  0  0
 17 18  1  0  0  0
 17 41  1  0  0  0
 17 42  1  0  0  0
 18 19  1  0  0  0
 18 43  1  0  0  0
 18 44  1  0  0  0
 19 20  1  0  0  0
 19 45  1  0  0  0
 19 46  1  0  0  0
 20 21  1  0  0  0
 20 47  1  0  0  0
 21 22  2  0  0  0
 21 23  1  0  0  0
 23 24  1  0  0  0
 24 48  1  0  0  0
 24 49  1  0  0  0
 24 50  1  0  0  0
M  END
$$$$
