234
  CCTOOLS-0919241036

 46 48  0  0  0  0  0  0  0  0999 V2000
    1.8840   -0.7860    3.4530 C   0  0  0  0  0
    0.5930   -0.2470    3.4730 C   0  0  0  0  0
   -0.1620   -0.2150    2.3030 C   0  0  0  0  0
    0.3680   -0.7310    1.1240 C   0  0  0  0  0
    1.6580   -1.2660    1.1160 C   0  0  0  0  0
    2.4060   -1.2910    2.2750 C   0  0  0  0  0
    0.0350    0.2920    4.7310 C   0  0  0  0  0
   -0.3760    1.5520    4.9550 O   0  0  0  0  0
   -0.7850    1.6960    6.0830 N   0  0  0  0  0
   -0.7120    0.5830    6.7720 C   0  0  0  0  0
   -0.1680   -0.3920    5.8970 C   0  0  0  0  0
   -1.1210    0.3820    8.1830 C   0  0  0  0  0
   -1.6300    1.4100    8.8890 O   0  0  0  0  0
   -0.9970   -0.7070    8.7020 O   0  0  0  0  0
   -0.4290   -0.7060   -0.1190 C   0  0  0  0  0
   -0.8250   -0.4110   -4.6150 C   0  0  0  0  0
   -2.0310   -1.0940   -4.6140 C   0  0  0  0  0
   -2.8230   -1.1080   -5.7460 C   0  0  0  0  0
   -2.4270   -0.4390   -6.8890 C   0  0  0  0  0
   -1.2280    0.2540   -6.9110 C   0  0  0  0  0
   -0.4150    0.2760   -5.7670 C   0  0  0  0  0
    0.8590    1.0090   -5.7780 C   0  0  0  0  0
    0.8910    2.1780   -5.4470 O   0  0  0  0  0
    1.9920    0.3840   -6.1550 O   0  0  0  0  0
    3.2510    1.1080   -6.1660 C   0  0  0  0  0
   -0.8410    0.9090   -8.0330 O   0  0  0  0  0
   -0.0490   -0.3980   -3.5020 O   0  0  0  0  0
   -0.7350   -1.1660   -2.5110 C   0  0  0  0  0
    0.0780   -1.1920   -1.2430 C   0  0  0  0  0
    2.6210   -0.8140    4.5850 F   0  0  0  0  0
   -1.1590    0.1990    2.3130 H   0  0  0  0  0
    2.0720   -1.6620    0.2000 H   0  0  0  0  0
    3.4020   -1.7070    2.2640 H   0  0  0  0  0
    0.0400   -1.4310    6.1050 H   0  0  0  0  0
   -1.8970    1.2790    9.8090 H   0  0  0  0  0
   -1.4270   -0.2910   -0.1130 H   0  0  0  0  0
   -2.3500   -1.6200   -3.7260 H   0  0  0  0  0
   -3.7600   -1.6460   -5.7380 H   0  0  0  0  0
   -3.0540   -0.4570   -7.7680 H   0  0  0  0  0
    4.0490    0.4430   -6.4960 H   0  0  0  0  0
    3.1770    1.9550   -6.8490 H   0  0  0  0  0
    3.4710    1.4690   -5.1610 H   0  0  0  0  0
   -0.3260    0.2820   -8.5600 H   0  0  0  0  0
   -1.7060   -0.7150   -2.3100 H   0  0  0  0  0
   -0.8750   -2.1850   -2.8730 H   0  0  0  0  0
    1.0760   -1.6060   -1.2500 H   0  0  0  0  0
  1  2  2  0  0  0
  1  6  1  0  0  0
  1 30  1  0  0  0
  2  3  1  0  0  0
  2  7  1  0  0  0
  3  4  2  0  0  0
  3 31  1  0  0  0
  4  5  1  0  0  0
  4 15  1  0  0  0
  5  6  2  0  0  0
  5 32  1  0  0  0
  6 33  1  0  0  0
  7  8  1  0  0  0
  7 11  2  0  0  0
  8  9  1  0  0  0
  9 10  2  0  0  0
 10 11  1  0  0  0
 10 12  1  0  0  0
 11 34  1  0  0  0
 12 13  1  0  0  0
 12 14  2  0  0  0
 13 35  1  0  0  0
 15 29  2  0  0  0
 15 36  1  0  0  0
 16 17  2  0  0  0
 16 21  1  0  0  0
 16 27  1  0  0  0
 17 18  1  0  0  0
 17 37  1  0  0  0
 18 19  2  0  0  0
 18 38  1  0  0  0
 19 20  1  0  0  0
 19 39  1  0  0  0
 20 21  2  0  0  0
 20 26  1  0  0  0
 21 22  1  0  0  0
 22 23  2  0  0  0
 22 24  1  0  0  0
 24 25  1  0  0  0
 25 40  1  0  0  0
 25 41  1  0  0  0
 25 42  1  0  0  0
 26 43  1  0  0  0
 27 28  1  0  0  0
 28 29  1  0  0  0
 28 44  1  0  0  0
 28 45  1  0  0  0
 29 46  1  0  0  0
M  END
$$$$
