23I
  CCTOOLS-0919241037

104105  0  0  0  0  0  0  0  0999 V2000
   -7.5080    4.6380  -10.3710 O   0  0  0  0  0
  -13.7840   11.8810  -13.0360 C   0  0  0  0  0
  -12.7810   12.6580  -12.4570 C   0  0  0  0  0
  -13.1100   13.8370  -11.7890 C   0  0  0  0  0
  -14.4420   14.2400  -11.7000 C   0  0  0  0  0
  -15.4460   13.4630  -12.2790 C   0  0  0  0  0
  -15.1010   12.2960  -12.9380 C   0  0  0  0  0
  -15.9290    2.9150  -10.2010 C   0  0  0  0  0
  -16.8510    9.0430  -13.3670 C   0  0  0  0  0
  -13.4240    5.6290  -14.3440 C   0  0  0  0  0
  -17.1460    6.7110  -12.6150 C   0  0  0  0  0
  -14.7280    6.0080  -13.7400 C   0  0  0  0  0
   -9.5710    6.9960  -12.2600 C   0  0  0  0  0
  -11.7800    6.1380  -16.1310 C   0  0  0  0  0
  -10.7910    7.3160  -15.9800 C   0  0  0  0  0
  -12.0560    5.7980  -17.6070 C   0  0  0  0  0
  -13.0230    4.6140  -17.8310 C   0  0  0  0  0
  -12.4700    3.3610  -17.1440 C   0  0  0  0  0
  -16.1900   11.4530  -13.5660 C   0  0  0  0  0
  -16.4740   11.8470  -15.0140 C   0  0  0  0  0
  -15.8790   10.0440  -13.4860 N   0  0  0  0  0
  -18.0680    9.2960  -13.3200 O   0  0  0  0  0
  -16.3770    7.6710  -13.2730 C   0  0  0  0  0
  -16.6920    5.3960  -12.5250 C   0  0  0  0  0
  -15.4690    5.0400  -13.0940 C   0  0  0  0  0
  -15.1540    7.3150  -13.8420 C   0  0  0  0  0
  -17.4780    4.4130  -11.8510 N   0  0  0  0  0
  -17.9290    3.2320  -12.6410 C   0  0  0  0  0
  -17.1830    4.1790  -10.1660 S   0  0  0  0  0
  -18.3560    3.5890   -9.5470 O   0  0  0  0  0
  -16.5820    5.3710   -9.5980 O   0  0  0  0  0
  -12.8070    4.6710  -13.8870 O   0  0  0  0  0
  -13.0130    6.3980  -15.4210 N   0  0  0  0  0
  -14.4320    4.9010  -17.3110 C   0  0  0  0  0
  -10.4770    7.7220  -14.5280 C   0  0  0  0  0
   -9.7980    6.5980  -13.7190 C   0  0  0  0  0
   -8.4440    6.2470  -14.3420 C   0  0  0  0  0
  -11.3290    8.4400  -16.6820 O   0  0  0  0  0
   -9.3960    8.1610  -11.9080 O   0  0  0  0  0
   -9.6170    5.9060  -11.4030 N   0  0  0  0  0
   -9.4600    6.0220   -9.9710 C   0  0  0  0  0
  -10.6870    5.5110   -9.1850 C   0  0  0  0  0
  -11.9810    6.2510   -9.5420 C   0  0  0  0  0
  -10.8780    4.0040   -9.3820 C   0  0  0  0  0
   -8.1770    5.2940   -9.5750 C   0  0  0  0  0
   -7.8500    5.4970   -8.2420 N   0  0  0  0  0
   -6.6610    4.9480   -7.6310 C   0  0  0  0  0
   -6.9400    4.6690   -6.1610 C   0  0  0  0  0
   -5.5150    5.9330   -7.8100 C   0  0  0  0  0
  -13.5180   10.9630  -13.5540 H   0  0  0  0  0
  -11.7430   12.3440  -12.5260 H   0  0  0  0  0
  -12.3280   14.4420  -11.3380 H   0  0  0  0  0
  -14.6980   15.1580  -11.1800 H   0  0  0  0  0
  -16.4810   13.7850  -12.2040 H   0  0  0  0  0
  -16.3930    1.9630   -9.9410 H   0  0  0  0  0
  -15.5090    2.8750  -11.2070 H   0  0  0  0  0
  -15.1570    3.1760   -9.4750 H   0  0  0  0  0
  -18.1000    6.9880  -12.1720 H   0  0  0  0  0
  -11.3350    5.2720  -15.6290 H   0  0  0  0  0
   -9.8620    7.0520  -16.4980 H   0  0  0  0  0
  -12.4780    6.6770  -18.1080 H   0  0  0  0  0
  -11.1040    5.5780  -18.1070 H   0  0  0  0  0
  -13.0890    4.4000  -18.9040 H   0  0  0  0  0
  -12.3870    3.5050  -16.0620 H   0  0  0  0  0
  -13.1210    2.4990  -17.3230 H   0  0  0  0  0
  -11.4760    3.1120  -17.5310 H   0  0  0  0  0
  -17.1180   11.5810  -12.9950 H   0  0  0  0  0
  -16.2370   11.0260  -15.7000 H   0  0  0  0  0
  -17.5330   12.1010  -15.1420 H   0  0  0  0  0
  -15.8940   12.7240  -15.3220 H   0  0  0  0  0
  -14.8980    9.7880  -13.4560 H   0  0  0  0  0
  -15.1150    4.0130  -13.0230 H   0  0  0  0  0
  -14.5550    8.0640  -14.3560 H   0  0  0  0  0
  -17.3020    2.3660  -12.4120 H   0  0  0  0  0
  -17.8590    3.4440  -13.7110 H   0  0  0  0  0
  -18.9670    2.9890  -12.3980 H   0  0  0  0  0
  -13.6070    7.1360  -15.7830 H   0  0  0  0  0
  -14.4150    5.1960  -16.2570 H   0  0  0  0  0
  -15.0680    4.0140  -17.4030 H   0  0  0  0  0
  -14.9140    5.7010  -17.8820 H   0  0  0  0  0
   -9.8450    8.6170  -14.5120 H   0  0  0  0  0
  -11.4160    7.9800  -14.0210 H   0  0  0  0  0
  -10.4290    5.7010  -13.7450 H   0  0  0  0  0
   -7.6300    6.3830  -13.6210 H   0  0  0  0  0
   -8.4280    5.2070  -14.6840 H   0  0  0  0  0
   -8.2270    6.8850  -15.2060 H   0  0  0  0  0
  -11.3590    9.1680  -16.0450 H   0  0  0  0  0
   -9.7880    4.9800  -11.7830 H   0  0  0  0  0
   -9.3120    7.0900   -9.7690 H   0  0  0  0  0
  -10.5050    5.6760   -8.1150 H   0  0  0  0  0
  -11.8860    7.3260   -9.3610 H   0  0  0  0  0
  -12.2560    6.1030  -10.5910 H   0  0  0  0  0
  -12.8110    5.8880   -8.9270 H   0  0  0  0  0
   -9.9720    3.4570   -9.1010 H   0  0  0  0  0
  -11.6970    3.6340   -8.7550 H   0  0  0  0  0
  -11.1170    3.7600  -10.4220 H   0  0  0  0  0
   -8.4510    6.0760   -7.6640 H   0  0  0  0  0
   -6.4200    4.0100   -8.1430 H   0  0  0  0  0
   -6.0610    4.2360   -5.6730 H   0  0  0  0  0
   -7.2110    5.5850   -5.6250 H   0  0  0  0  0
   -7.7710    3.9650   -6.0500 H   0  0  0  0  0
   -5.3340    6.1280   -8.8730 H   0  0  0  0  0
   -4.5910    5.5390   -7.3760 H   0  0  0  0  0
   -5.7340    6.8940   -7.3320 H   0  0  0  0  0
  1 45  2  0  0  0
  2  7  2  0  0  0
  2  3  1  0  0  0
  2 50  1  0  0  0
  3  4  2  0  0  0
  3 51  1  0  0  0
  4  5  1  0  0  0
  4 52  1  0  0  0
  5  6  2  0  0  0
  5 53  1  0  0  0
  6  7  1  0  0  0
  6 54  1  0  0  0
  7 19  1  0  0  0
  8 29  1  0  0  0
  8 55  1  0  0  0
  8 56  1  0  0  0
  8 57  1  0  0  0
  9 23  1  0  0  0
  9 22  2  0  0  0
  9 21  1  0  0  0
 10 32  2  0  0  0
 10 12  1  0  0  0
 10 33  1  0  0  0
 11 24  1  0  0  0
 11 23  2  0  0  0
 11 58  1  0  0  0
 12 25  1  0  0  0
 12 26  2  0  0  0
 13 39  2  0  0  0
 13 36  1  0  0  0
 13 40  1  0  0  0
 14 33  1  0  0  0
 14 15  1  0  0  0
 14 16  1  0  0  0
 14 59  1  0  0  0
 15 35  1  0  0  0
 15 38  1  0  0  0
 15 60  1  0  0  0
 16 17  1  0  0  0
 16 61  1  0  0  0
 16 62  1  0  0  0
 17 34  1  0  0  0
 17 18  1  0  0  0
 17 63  1  0  0  0
 18 64  1  0  0  0
 18 65  1  0  0  0
 18 66  1  0  0  0
 19 21  1  0  0  0
 19 20  1  0  0  0
 19 67  1  0  0  0
 20 68  1  0  0  0
 20 69  1  0  0  0
 20 70  1  0  0  0
 21 71  1  0  0  0
 23 26  1  0  0  0
 24 27  1  0  0  0
 24 25  2  0  0  0
 25 72  1  0  0  0
 26 73  1  0  0  0
 27 28  1  0  0  0
 27 29  1  0  0  0
 28 74  1  0  0  0
 28 75  1  0  0  0
 28 76  1  0  0  0
 29 30  2  0  0  0
 29 31  2  0  0  0
 33 77  1  0  0  0
 34 78  1  0  0  0
 34 79  1  0  0  0
 34 80  1  0  0  0
 35 36  1  0  0  0
 35 81  1  0  0  0
 35 82  1  0  0  0
 36 37  1  0  0  0
 36 83  1  0  0  0
 37 84  1  0  0  0
 37 85  1  0  0  0
 37 86  1  0  0  0
 38 87  1  0  0  0
 40 41  1  0  0  0
 40 88  1  0  0  0
 41 45  1  0  0  0
 41 42  1  0  0  0
 41 89  1  0  0  0
 42 43  1  0  0  0
 42 44  1  0  0  0
 42 90  1  0  0  0
 43 91  1  0  0  0
 43 92  1  0  0  0
 43 93  1  0  0  0
 44 94  1  0  0  0
 44 95  1  0  0  0
 44 96  1  0  0  0
 45 46  1  0  0  0
 46 47  1  0  0  0
 46 97  1  0  0  0
 47 49  1  0  0  0
 47 48  1  0  0  0
 47 98  1  0  0  0
 48 99  1  0  0  0
 48100  1  0  0  0
 48101  1  0  0  0
 49102  1  0  0  0
 49103  1  0  0  0
 49104  1  0  0  0
M  END
$$$$
