244
  CCTOOLS-0919241037

 31 33  0  0  0  0  0  0  0  0999 V2000
   -0.1440   -0.3300   -3.7990 C   0  0  0  0  0
    0.6130   -0.4800   -2.6570 C   0  0  0  0  0
    0.0400   -0.2710   -1.4100 C   0  0  0  0  0
   -1.3140    0.0930   -1.3250 C   0  0  0  0  0
   -2.0740    0.2430   -2.4860 C   0  0  0  0  0
   -1.4860    0.0290   -3.7180 C   0  0  0  0  0
    0.5210   -0.3410   -0.1500 O   0  0  0  0  0
   -0.4390   -0.0440    0.7460 C   0  0  0  0  0
   -1.6000    0.2290    0.1040 C   0  0  0  0  0
   -2.2200    0.1720   -4.8540 O   0  0  0  0  0
    2.0640   -0.8710   -2.7630 C   0  0  0  0  0
    2.8930    0.3410   -2.8580 C   0  0  0  0  0
    3.5330    1.2760   -2.9320 N   0  0  0  0  0
   -0.2540   -0.0260    2.2130 C   0  0  0  0  0
   -1.3250    0.2970    3.0490 C   0  0  0  0  0
   -1.1500    0.3090    4.4160 C   0  0  0  0  0
    0.0910    0.0090    4.9610 C   0  0  0  0  0
    1.1580   -0.3120    4.1330 C   0  0  0  0  0
    0.9900   -0.3310    2.7650 C   0  0  0  0  0
    0.2600    0.0260    6.3090 O   0  0  0  0  0
    0.3070   -0.4950   -4.7660 H   0  0  0  0  0
   -3.1150    0.5230   -2.4220 H   0  0  0  0  0
   -2.5440    0.4940    0.5560 H   0  0  0  0  0
   -2.6080   -0.6910   -5.0460 H   0  0  0  0  0
    2.2120   -1.4830   -3.6530 H   0  0  0  0  0
    2.3530   -1.4400   -1.8790 H   0  0  0  0  0
   -2.2900    0.5340    2.6250 H   0  0  0  0  0
   -1.9770    0.5580    5.0630 H   0  0  0  0  0
    2.1210   -0.5490    4.5620 H   0  0  0  0  0
    1.8200   -0.5810    2.1220 H   0  0  0  0  0
    0.5330    0.9240    6.5450 H   0  0  0  0  0
  1  2  2  0  0  0
  1  6  1  0  0  0
  1 21  1  0  0  0
  2  3  1  0  0  0
  2 11  1  0  0  0
  3  4  2  0  0  0
  3  7  1  0  0  0
  4  5  1  0  0  0
  4  9  1  0  0  0
  5  6  2  0  0  0
  5 22  1  0  0  0
  6 10  1  0  0  0
  7  8  1  0  0  0
  8  9  2  0  0  0
  8 14  1  0  0  0
  9 23  1  0  0  0
 10 24  1  0  0  0
 11 12  1  0  0  0
 11 25  1  0  0  0
 11 26  1  0  0  0
 12 13  3  0  0  0
 14 15  2  0  0  0
 14 19  1  0  0  0
 15 16  1  0  0  0
 15 27  1  0  0  0
 16 17  2  0  0  0
 16 28  1  0  0  0
 17 18  1  0  0  0
 17 20  1  0  0  0
 18 19  2  0  0  0
 18 29  1  0  0  0
 19 30  1  0  0  0
 20 31  1  0  0  0
M  END
$$$$
