272
  CCTOOLS-0919241037

 27 29  0  0  0  0  0  0  0  0999 V2000
   -3.9310    0.8250    0.1980 C   0  0  0  0  0
   -3.6560   -0.4960   -0.1090 C   0  0  0  0  0
   -2.3390   -0.9130   -0.2430 C   0  0  0  0  0
   -1.2990    0.0130   -0.0610 C   0  0  0  0  0
   -1.5940    1.3430    0.2420 C   0  0  0  0  0
   -2.8950    1.7390    0.3720 C   0  0  0  0  0
   -1.7700   -2.1030   -0.5280 O   0  0  0  0  0
   -0.3640   -1.9640   -0.5400 N   0  0  0  0  0
   -0.0430   -0.7260   -0.2710 C   0  0  0  0  0
    1.3270   -0.1710   -0.1880 C   0  0  0  0  0
    2.3510   -0.9170    0.4070 C   0  0  0  0  0
    3.6320   -0.3940    0.4780 C   0  0  0  0  0
    3.8940    0.8690   -0.0310 C   0  0  0  0  0
    2.8780    1.6100   -0.6220 C   0  0  0  0  0
    1.6010    1.0970   -0.7010 C   0  0  0  0  0
    5.1500    1.3810    0.0440 O   0  0  0  0  0
    2.0910   -2.1520    0.9090 O   0  0  0  0  0
   -5.2190    1.2330    0.3290 O   0  0  0  0  0
   -4.4640   -1.2010   -0.2430 H   0  0  0  0  0
   -0.7950    2.0560    0.3780 H   0  0  0  0  0
   -3.1210    2.7670    0.6110 H   0  0  0  0  0
    4.4240   -0.9670    0.9360 H   0  0  0  0  0
    3.0880    2.5920   -1.0190 H   0  0  0  0  0
    0.8140    1.6750   -1.1600 H   0  0  0  0  0
    5.2060    1.8630    0.8800 H   0  0  0  0  0
    2.2410   -2.7820    0.1910 H   0  0  0  0  0
   -5.4570    1.1140    1.2590 H   0  0  0  0  0
  1  2  2  0  0  0
  1  6  1  0  0  0
  1 18  1  0  0  0
  2  3  1  0  0  0
  2 19  1  0  0  0
  3  4  2  0  0  0
  3  7  1  0  0  0
  4  5  1  0  0  0
  4  9  1  0  0  0
  5  6  2  0  0  0
  5 20  1  0  0  0
  6 21  1  0  0  0
  7  8  1  0  0  0
  8  9  2  0  0  0
  9 10  1  0  0  0
 10 11  2  0  0  0
 10 15  1  0  0  0
 11 12  1  0  0  0
 11 17  1  0  0  0
 12 13  2  0  0  0
 12 22  1  0  0  0
 13 14  1  0  0  0
 13 16  1  0  0  0
 14 15  2  0  0  0
 14 23  1  0  0  0
 15 24  1  0  0  0
 16 25  1  0  0  0
 17 26  1  0  0  0
 18 27  1  0  0  0
M  END
$$$$
