27E
  CCTOOLS-0919241037

 21 25  0  0  1  0  0  0  0  0999 V2000
   -0.0620   -3.5650    0.4300 O   0  0  0  0  0
   -0.0420   -2.3670    0.2750 C   0  0  0  0  0
    1.1520   -1.4190    0.1360 C   0  0  0  0  0
    2.8070   -2.1280    0.2290 CL  0  0  0  0  0
    0.7820   -0.2190    1.0390 C   0  0  0  0  0
    1.6200   -0.0470    2.6260 CL  0  0  0  0  0
    1.2000    0.7060   -0.1340 C   0  0  0  0  0
    2.8910    1.3210   -0.2400 CL  0  0  0  0  0
    0.7620   -0.4950   -1.0400 C   0  0  0  0  0
    1.5640   -0.7110   -2.6400 CL  0  0  0  0  0
   -0.8090   -0.4670   -1.0210 C   0  0  0  0  0
   -1.6560   -0.6520   -2.6020 CL  0  0  0  0  0
   -1.2050   -1.3770    0.1570 C   0  0  0  0  0
   -2.8830   -2.0290    0.2570 CL  0  0  0  0  0
   -0.7700   -0.1910    1.0580 C   0  0  0  0  0
   -1.5640    0.0110    2.6640 CL  0  0  0  0  0
   -1.1820    0.7490   -0.1050 C   0  0  0  0  0
   -2.8520    1.4250   -0.1720 CL  0  0  0  0  0
    0.0360    1.7570   -0.1530 C   0  0  0  0  0
    0.0340    2.7140   -1.6810 CL  0  0  0  0  0
    0.0910    2.8320    1.2930 CL  0  0  0  0  0
  2  1  2  0  0  0
  3  5  1  0  0  0
  3  2  1  0  0  0
  4  3  1  0  0  0
  5 15  1  0  0  0
  5  6  1  0  0  0
  7  5  1  0  0  0
  8  7  1  0  0  0
  9  7  1  0  0  0
  9 11  1  0  0  0
  9  3  1  0  0  0
 10  9  1  0  0  0
 11 17  1  0  0  0
 11 13  1  0  0  0
 12 11  1  0  0  0
 13  2  1  0  0  0
 13 15  1  0  0  0
 13 14  1  0  0  0
 15 16  1  0  0  0
 17 18  1  0  0  0
 17 15  1  0  0  0
 19  7  1  0  0  0
 19 21  1  0  0  0
 19 17  1  0  0  0
 20 19  1  0  0  0
M  END
$$$$
