27G
  CCTOOLS-0919241037

 43 44  0  0  0  0  0  0  0  0999 V2000
    7.2910   -2.6780   -0.9260 C   0  0  0  0  0
    6.0790   -2.4520   -0.0200 C   0  0  0  0  0
    5.2960   -1.2320   -0.5100 C   0  0  0  0  0
    4.0840   -1.0060    0.3960 C   0  0  0  0  0
    3.3410    0.1510   -0.0700 O   0  0  0  0  0
    2.2370    0.4880    0.6240 C   0  0  0  0  0
    1.9040   -0.1660    1.5920 O   0  0  0  0  0
    1.4300    1.6550    0.2080 C   0  0  0  0  0
    2.0290    2.9030    0.0600 C   0  0  0  0  0
    1.2700    3.9920   -0.3300 C   0  0  0  0  0
   -0.0840    3.8500   -0.5730 C   0  0  0  0  0
   -0.6960    2.6190   -0.4300 C   0  0  0  0  0
    0.0530    1.5100   -0.0450 C   0  0  0  0  0
   -0.5970    0.1910    0.1080 C   0  0  0  0  0
    0.0760   -0.7950    0.3330 O   0  0  0  0  0
   -1.9350    0.0820   -0.0010 O   0  0  0  0  0
   -2.5040   -1.2440    0.1620 C   0  0  0  0  0
   -4.0020   -1.1700    0.0080 C   0  0  0  0  0
   -4.5770   -1.3280   -1.2390 C   0  0  0  0  0
   -5.9500   -1.2600   -1.3800 C   0  0  0  0  0
   -6.7480   -1.0350   -0.2740 C   0  0  0  0  0
   -6.1730   -0.8770    0.9730 C   0  0  0  0  0
   -4.8000   -0.9500    1.1150 C   0  0  0  0  0
    7.9340   -1.7980   -0.8990 H   0  0  0  0  0
    7.8490   -3.5460   -0.5760 H   0  0  0  0  0
    6.9530   -2.8500   -1.9480 H   0  0  0  0  0
    5.4360   -3.3310   -0.0470 H   0  0  0  0  0
    6.4170   -2.2800    1.0020 H   0  0  0  0  0
    5.9390   -0.3530   -0.4830 H   0  0  0  0  0
    4.9580   -1.4040   -1.5320 H   0  0  0  0  0
    3.4410   -1.8860    0.3690 H   0  0  0  0  0
    4.4220   -0.8340    1.4180 H   0  0  0  0  0
    3.0850    3.0210    0.2490 H   0  0  0  0  0
    1.7380    4.9580   -0.4440 H   0  0  0  0  0
   -0.6680    4.7070   -0.8760 H   0  0  0  0  0
   -1.7540    2.5160   -0.6210 H   0  0  0  0  0
   -2.0940   -1.9110   -0.5960 H   0  0  0  0  0
   -2.2590   -1.6250    1.1530 H   0  0  0  0  0
   -3.9540   -1.5040   -2.1030 H   0  0  0  0  0
   -6.4000   -1.3830   -2.3540 H   0  0  0  0  0
   -7.8210   -0.9810   -0.3840 H   0  0  0  0  0
   -6.7970   -0.7000    1.8370 H   0  0  0  0  0
   -4.3500   -0.8260    2.0890 H   0  0  0  0  0
  1  2  1  0  0  0
  1 24  1  0  0  0
  1 25  1  0  0  0
  1 26  1  0  0  0
  2  3  1  0  0  0
  2 27  1  0  0  0
  2 28  1  0  0  0
  3  4  1  0  0  0
  3 29  1  0  0  0
  3 30  1  0  0  0
  4  5  1  0  0  0
  4 31  1  0  0  0
  4 32  1  0  0  0
  5  6  1  0  0  0
  6  8  1  0  0  0
  6  7  2  0  0  0
  8  9  2  0  0  0
  9 10  1  0  0  0
  9 33  1  0  0  0
 10 34  1  0  0  0
 11 10  2  0  0  0
 11 35  1  0  0  0
 12 11  1  0  0  0
 12 36  1  0  0  0
 13 12  2  0  0  0
 13  8  1  0  0  0
 14 13  1  0  0  0
 15 14  2  0  0  0
 16 14  1  0  0  0
 17 18  1  0  0  0
 17 16  1  0  0  0
 17 37  1  0  0  0
 17 38  1  0  0  0
 18 19  2  0  0  0
 19 20  1  0  0  0
 19 39  1  0  0  0
 20 40  1  0  0  0
 21 20  2  0  0  0
 21 41  1  0  0  0
 22 21  1  0  0  0
 22 42  1  0  0  0
 23 22  2  0  0  0
 23 18  1  0  0  0
 23 43  1  0  0  0
M  END
$$$$
