27H
  CCTOOLS-0919241037

 56 58  0  0  1  0  0  0  0  0999 V2000
    0.1980    3.8080    0.4480 C   0  0  0  0  0
    0.5370    2.5490   -0.3520 C   0  0  0  0  0
    1.2000    2.9470   -1.6720 C   0  0  0  0  0
    1.4960    1.6730    0.4570 C   0  0  0  0  0
    1.8680    0.4190   -0.3380 C   0  0  0  0  0
    0.9000    1.3100    1.7040 O   0  0  0  0  0
    2.8290    2.4210    0.6970 C   0  0  0  0  0
    3.9420    1.5520    0.0580 C   0  0  0  0  0
    3.3210    0.1440    0.0260 C   0  0  0  0  0
    3.3940   -0.4840    1.4190 C   0  0  0  0  0
    3.9750   -0.7830   -0.9860 C   0  0  0  0  0
    3.6910   -2.2000   -0.5280 C   0  0  0  0  0
    2.4780   -2.6770   -0.5770 C   0  0  0  0  0
    2.2170   -4.0720   -0.0690 C   0  0  0  0  0
    1.3250   -1.8670   -1.1320 C   0  0  0  0  0
    0.9500   -0.7590   -0.1360 C   0  0  0  0  0
   -0.4240   -0.3490   -0.3630 O   0  0  0  0  0
   -1.3800   -1.0010    0.3270 C   0  0  0  0  0
   -1.0730   -1.8890    1.0980 O   0  0  0  0  0
   -2.7970   -0.6380    0.1480 C   0  0  0  0  0
   -3.1530    0.3800   -0.7420 C   0  0  0  0  0
   -4.4780    0.7150   -0.9070 C   0  0  0  0  0
   -5.4620    0.0450   -0.1890 C   0  0  0  0  0
   -6.7660    0.3790   -0.3550 O   0  0  0  0  0
   -5.1130   -0.9680    0.6970 C   0  0  0  0  0
   -3.7900   -1.3130    0.8640 C   0  0  0  0  0
   -0.4860    4.4310   -0.1280 H   0  0  0  0  0
   -0.2750    3.5240    1.3890 H   0  0  0  0  0
    1.1120    4.3650    0.6540 H   0  0  0  0  0
   -0.3770    1.9920   -0.5580 H   0  0  0  0  0
    2.1710    3.3990   -1.4690 H   0  0  0  0  0
    1.3350    2.0600   -2.2930 H   0  0  0  0  0
    0.5670    3.6630   -2.1950 H   0  0  0  0  0
    1.8510    0.6800   -1.3960 H   0  0  0  0  0
    0.6440    2.0640    2.2520 H   0  0  0  0  0
    2.7990    3.4010    0.2200 H   0  0  0  0  0
    3.0080    2.5320    1.7660 H   0  0  0  0  0
    4.1660    1.8960   -0.9520 H   0  0  0  0  0
    4.8400    1.5610    0.6760 H   0  0  0  0  0
    2.8670    0.1500    2.1310 H   0  0  0  0  0
    2.9290   -1.4700    1.3980 H   0  0  0  0  0
    4.4370   -0.5800    1.7200 H   0  0  0  0  0
    3.5460   -0.6180   -1.9740 H   0  0  0  0  0
    5.0500   -0.6080   -1.0110 H   0  0  0  0  0
    4.4960   -2.8180   -0.1600 H   0  0  0  0  0
    3.1490   -4.5080    0.2910 H   0  0  0  0  0
    1.4950   -4.0320    0.7470 H   0  0  0  0  0
    1.8180   -4.6840   -0.8780 H   0  0  0  0  0
    1.6200   -1.4180   -2.0810 H   0  0  0  0  0
    0.4660   -2.5190   -1.2910 H   0  0  0  0  0
    1.0560   -1.1330    0.8820 H   0  0  0  0  0
   -2.3890    0.9010   -1.3000 H   0  0  0  0  0
   -4.7530    1.5010   -1.5950 H   0  0  0  0  0
   -7.2140   -0.1170   -1.0530 H   0  0  0  0  0
   -5.8800   -1.4860    1.2530 H   0  0  0  0  0
   -3.5200   -2.1030    1.5490 H   0  0  0  0  0
  1 27  1  0  0  0
  1 28  1  0  0  0
  1 29  1  0  0  0
  2  1  1  0  0  0
  2  3  1  0  0  0
  2 30  1  0  0  0
  3 31  1  0  0  0
  3 32  1  0  0  0
  3 33  1  0  0  0
  4  5  1  0  0  0
  4  2  1  0  0  0
  5 16  1  0  0  0
  5 34  1  0  0  0
  6  4  1  0  0  0
  6 35  1  0  0  0
  7  4  1  0  0  0
  7 36  1  0  0  0
  7 37  1  0  0  0
  8  9  1  0  0  0
  8  7  1  0  0  0
  8 38  1  0  0  0
  8 39  1  0  0  0
  9  5  1  0  0  0
 10  9  1  0  0  0
 10 40  1  0  0  0
 10 41  1  0  0  0
 10 42  1  0  0  0
 11  9  1  0  0  0
 11 12  1  0  0  0
 11 43  1  0  0  0
 11 44  1  0  0  0
 12 13  2  0  0  0
 12 45  1  0  0  0
 13 15  1  0  0  0
 14 13  1  0  0  0
 14 46  1  0  0  0
 14 47  1  0  0  0
 14 48  1  0  0  0
 15 49  1  0  0  0
 15 50  1  0  0  0
 16 15  1  0  0  0
 16 17  1  0  0  0
 16 51  1  0  0  0
 17 18  1  0  0  0
 18 20  1  0  0  0
 19 18  2  0  0  0
 20 26  2  0  0  0
 20 21  1  0  0  0
 21 22  2  0  0  0
 21 52  1  0  0  0
 22 23  1  0  0  0
 22 53  1  0  0  0
 23 24  1  0  0  0
 24 54  1  0  0  0
 25 23  2  0  0  0
 25 55  1  0  0  0
 26 25  1  0  0  0
 26 56  1  0  0  0
M  END
$$$$
