27J
  CCTOOLS-0919241037

 49 50  0  0  1  0  0  0  0  0999 V2000
   -3.9150    0.6320    0.6650 C   0  0  0  0  0
   -2.9640    1.5430   -0.1250 C   0  0  0  0  0
   -1.9910    2.2100    0.8430 C   0  0  0  0  0
   -0.8800    2.9600    0.1240 C   0  0  0  0  0
   -1.2210    3.2110   -1.3440 C   0  0  0  0  0
    0.3880    2.2800    0.2300 O   0  0  0  0  0
    0.4840    0.9490    0.1140 C   0  0  0  0  0
   -0.5120    0.2660   -0.0240 O   0  0  0  0  0
    1.8090    0.3010    0.1260 C   0  0  0  0  0
    2.9630    1.0790   -0.0680 C   0  0  0  0  0
    2.8690    2.4210   -0.2430 O   0  0  0  0  0
    4.2100    0.4770   -0.0860 C   0  0  0  0  0
    4.3210   -0.8950    0.0860 C   0  0  0  0  0
    5.5430   -1.4840    0.0610 O   0  0  0  0  0
    3.1810   -1.6650    0.2890 C   0  0  0  0  0
    1.9350   -1.0770    0.3190 C   0  0  0  0  0
    0.7320   -1.9420    0.5890 C   0  0  0  0  0
    0.1410   -2.4390   -0.7310 C   0  0  0  0  0
   -1.1570   -3.1990   -0.4520 C   0  0  0  0  0
   -2.3560   -2.3440   -0.8670 C   0  0  0  0  0
   -2.9400   -1.6490    0.3650 C   0  0  0  0  0
   -4.0620   -0.7030   -0.0660 C   0  0  0  0  0
   -5.3260   -1.2870    0.2590 O   0  0  0  0  0
   -3.5090    0.4640    1.6610 H   0  0  0  0  0
   -4.8890    1.1150    0.7420 H   0  0  0  0  0
   -2.4300    0.9350   -0.8520 H   0  0  0  0  0
   -3.5660    2.2980   -0.6330 H   0  0  0  0  0
   -2.5500    2.9170    1.4700 H   0  0  0  0  0
   -1.5610    1.4540    1.5050 H   0  0  0  0  0
   -0.7710    3.9470    0.6120 H   0  0  0  0  0
   -2.1320    3.8050   -1.4090 H   0  0  0  0  0
   -0.4010    3.7490   -1.8210 H   0  0  0  0  0
   -1.3720    2.2570   -1.8500 H   0  0  0  0  0
    2.9080    2.9290    0.5790 H   0  0  0  0  0
    5.0970    1.0760   -0.2340 H   0  0  0  0  0
    5.9700   -1.5390    0.9260 H   0  0  0  0  0
    3.2700   -2.7340    0.4220 H   0  0  0  0  0
    1.0410   -2.8040    1.1870 H   0  0  0  0  0
   -0.0150   -1.3810    1.1460 H   0  0  0  0  0
   -0.0610   -1.5930   -1.3860 H   0  0  0  0  0
    0.8530   -3.1090   -1.2160 H   0  0  0  0  0
   -1.1610   -4.1300   -1.0190 H   0  0  0  0  0
   -1.2230   -3.4240    0.6130 H   0  0  0  0  0
   -2.0390   -1.5950   -1.5920 H   0  0  0  0  0
   -3.1180   -2.9830   -1.3160 H   0  0  0  0  0
   -3.3390   -2.3980    1.0490 H   0  0  0  0  0
   -2.1580   -1.0810    0.8680 H   0  0  0  0  0
   -4.0060   -0.5380   -1.1420 H   0  0  0  0  0
   -5.4880   -2.1380   -0.1700 H   0  0  0  0  0
  1 22  1  0  0  0
  1  2  1  0  0  0
  1 24  1  0  0  0
  1 25  1  0  0  0
  2  3  1  0  0  0
  2 26  1  0  0  0
  2 27  1  0  0  0
  3  4  1  0  0  0
  3 28  1  0  0  0
  3 29  1  0  0  0
  4  5  1  0  0  0
  4  6  1  0  0  0
  4 30  1  0  0  0
  5 31  1  0  0  0
  5 32  1  0  0  0
  5 33  1  0  0  0
  6  7  1  0  0  0
  7  9  1  0  0  0
  8  7  2  0  0  0
  9 16  2  0  0  0
  9 10  1  0  0  0
 10 12  2  0  0  0
 11 10  1  0  0  0
 11 34  1  0  0  0
 12 13  1  0  0  0
 12 35  1  0  0  0
 13 14  1  0  0  0
 14 36  1  0  0  0
 15 13  2  0  0  0
 15 37  1  0  0  0
 16 15  1  0  0  0
 17 16  1  0  0  0
 17 38  1  0  0  0
 17 39  1  0  0  0
 18 17  1  0  0  0
 18 40  1  0  0  0
 18 41  1  0  0  0
 19 18  1  0  0  0
 19 42  1  0  0  0
 19 43  1  0  0  0
 20 19  1  0  0  0
 20 44  1  0  0  0
 20 45  1  0  0  0
 21 20  1  0  0  0
 21 46  1  0  0  0
 21 47  1  0  0  0
 22 21  1  0  0  0
 22 48  1  0  0  0
 23 22  1  0  0  0
 23 49  1  0  0  0
M  END
$$$$
