27K
  CCTOOLS-0919241037

 28 28  0  0  0  0  0  0  0  0999 V2000
    6.0250    1.1610    0.0030 C   0  0  0  0  0
    5.0030    0.0220    0.0060 C   0  0  0  0  0
    3.5890    0.6050   -0.0000 C   0  0  0  0  0
    2.5670   -0.5340    0.0040 C   0  0  0  0  0
    1.2250    0.0200   -0.0020 O   0  0  0  0  0
    0.2020   -0.8570   -0.0000 C   0  0  0  0  0
    0.4250   -2.0510    0.0070 O   0  0  0  0  0
   -1.1890   -0.3670   -0.0060 C   0  0  0  0  0
   -2.2520   -1.2750   -0.0040 C   0  0  0  0  0
   -3.5490   -0.8130   -0.0090 C   0  0  0  0  0
   -3.8030    0.5540   -0.0170 C   0  0  0  0  0
   -5.0820    1.0050   -0.0220 O   0  0  0  0  0
   -2.7480    1.4600   -0.0180 C   0  0  0  0  0
   -1.4480    1.0070   -0.0080 C   0  0  0  0  0
    7.0320    0.7460    0.0070 H   0  0  0  0  0
    5.8870    1.7700   -0.8910 H   0  0  0  0  0
    5.8830    1.7790    0.8890 H   0  0  0  0  0
    5.1450   -0.5960   -0.8800 H   0  0  0  0  0
    5.1410   -0.5870    0.9000 H   0  0  0  0  0
    3.4470    1.2240    0.8860 H   0  0  0  0  0
    3.4510    1.2140   -0.8930 H   0  0  0  0  0
    2.7090   -1.1520   -0.8830 H   0  0  0  0  0
    2.7050   -1.1430    0.8970 H   0  0  0  0  0
   -2.0560   -2.3370    0.0020 H   0  0  0  0  0
   -4.3710   -1.5130   -0.0070 H   0  0  0  0  0
   -5.4550    1.1400    0.8600 H   0  0  0  0  0
   -2.9490    2.5210   -0.0240 H   0  0  0  0  0
   -0.6300    1.7120   -0.0050 H   0  0  0  0  0
  1  2  1  0  0  0
  1 15  1  0  0  0
  1 16  1  0  0  0
  1 17  1  0  0  0
  2  3  1  0  0  0
  2 18  1  0  0  0
  2 19  1  0  0  0
  3  4  1  0  0  0
  3 20  1  0  0  0
  3 21  1  0  0  0
  4  5  1  0  0  0
  4 22  1  0  0  0
  4 23  1  0  0  0
  5  6  1  0  0  0
  6  8  1  0  0  0
  7  6  2  0  0  0
  8  9  2  0  0  0
  8 14  1  0  0  0
  9 10  1  0  0  0
  9 24  1  0  0  0
 10 11  2  0  0  0
 10 25  1  0  0  0
 11 13  1  0  0  0
 11 12  1  0  0  0
 12 26  1  0  0  0
 13 27  1  0  0  0
 14 13  2  0  0  0
 14 28  1  0  0  0
M  END
$$$$
