27L
  CCTOOLS-0919241037

 37 37  0  0  0  0  0  0  0  0999 V2000
   -2.9030    0.3790    1.5720 C   0  0  0  0  0
   -2.8940    0.5050    0.0470 C   0  0  0  0  0
   -3.4920   -0.7590   -0.5730 C   0  0  0  0  0
   -3.7270    1.7200   -0.3690 C   0  0  0  0  0
   -1.4550    0.6820   -0.4420 C   0  0  0  0  0
   -0.6600   -0.5940   -0.1570 C   0  0  0  0  0
   -1.1070   -1.1860    1.1810 C   0  0  0  0  0
   -0.9080   -1.6100   -1.2730 C   0  0  0  0  0
    0.8100   -0.2660   -0.0940 C   0  0  0  0  0
    1.2350    1.0370   -0.2800 C   0  0  0  0  0
    2.5810    1.3400   -0.2230 C   0  0  0  0  0
    3.5070    0.3360    0.0210 C   0  0  0  0  0
    4.8330    0.6320    0.0770 O   0  0  0  0  0
    3.0790   -0.9700    0.2060 C   0  0  0  0  0
    1.7310   -1.2670    0.1540 C   0  0  0  0  0
   -2.0630    0.9360    1.9870 H   0  0  0  0  0
   -3.8360    0.7810    1.9640 H   0  0  0  0  0
   -2.8140   -0.6720    1.8500 H   0  0  0  0  0
   -4.5730   -0.6450   -0.6610 H   0  0  0  0  0
   -3.0620   -0.9180   -1.5620 H   0  0  0  0  0
   -3.2680   -1.6170    0.0620 H   0  0  0  0  0
   -3.3010    2.6200    0.0730 H   0  0  0  0  0
   -3.7210    1.8100   -1.4550 H   0  0  0  0  0
   -4.7520    1.5940   -0.0200 H   0  0  0  0  0
   -1.4570    0.8760   -1.5150 H   0  0  0  0  0
   -0.9950    1.5210    0.0790 H   0  0  0  0  0
   -2.0670   -1.6860    1.0540 H   0  0  0  0  0
   -0.3650   -1.9060    1.5270 H   0  0  0  0  0
   -1.2080   -0.3870    1.9160 H   0  0  0  0  0
   -0.9990   -1.0890   -2.2260 H   0  0  0  0  0
   -0.0740   -2.3100   -1.3190 H   0  0  0  0  0
   -1.8290   -2.1560   -1.0680 H   0  0  0  0  0
    0.5130    1.8180   -0.4690 H   0  0  0  0  0
    2.9130    2.3580   -0.3680 H   0  0  0  0  0
    5.1460    0.8640    0.9620 H   0  0  0  0  0
    3.7980   -1.7530    0.3960 H   0  0  0  0  0
    1.3960   -2.2830    0.3020 H   0  0  0  0  0
  1  2  1  0  0  0
  1 16  1  0  0  0
  1 17  1  0  0  0
  1 18  1  0  0  0
  2  5  1  0  0  0
  2  3  1  0  0  0
  3 19  1  0  0  0
  3 20  1  0  0  0
  3 21  1  0  0  0
  4  2  1  0  0  0
  4 22  1  0  0  0
  4 23  1  0  0  0
  4 24  1  0  0  0
  5  6  1  0  0  0
  5 25  1  0  0  0
  5 26  1  0  0  0
  6  8  1  0  0  0
  6  9  1  0  0  0
  7  6  1  0  0  0
  7 27  1  0  0  0
  7 28  1  0  0  0
  7 29  1  0  0  0
  8 30  1  0  0  0
  8 31  1  0  0  0
  8 32  1  0  0  0
  9 15  2  0  0  0
  9 10  1  0  0  0
 10 11  2  0  0  0
 10 33  1  0  0  0
 11 12  1  0  0  0
 11 34  1  0  0  0
 12 13  1  0  0  0
 13 35  1  0  0  0
 14 12  2  0  0  0
 14 36  1  0  0  0
 15 14  1  0  0  0
 15 37  1  0  0  0
M  END
$$$$
