27M
  CCTOOLS-0919241037

 28 29  0  0  0  0  0  0  0  0999 V2000
   -1.1260    0.0160    2.1350 O   0  0  0  0  0
   -1.8470   -0.0110    0.9860 C   0  0  0  0  0
   -3.1020   -0.5950    0.9660 C   0  0  0  0  0
   -3.8360   -0.6210   -0.2110 C   0  0  0  0  0
   -5.0660   -1.1930   -0.2280 O   0  0  0  0  0
   -3.3160   -0.0610   -1.3750 C   0  0  0  0  0
   -2.0750    0.5190   -1.3680 C   0  0  0  0  0
   -1.3260    0.5570   -0.1880 C   0  0  0  0  0
    0.0060    1.1850   -0.1760 C   0  0  0  0  0
    0.1070    2.3980   -0.1850 O   0  0  0  0  0
    1.2170    0.3460   -0.1560 C   0  0  0  0  0
    1.1090   -1.0450   -0.2600 C   0  0  0  0  0
    2.2360   -1.8240   -0.2400 C   0  0  0  0  0
    3.4920   -1.2370   -0.1170 C   0  0  0  0  0
    4.6030   -2.0170   -0.0980 O   0  0  0  0  0
    3.6140    0.1410   -0.0130 C   0  0  0  0  0
    2.4840    0.9390   -0.0370 C   0  0  0  0  0
    2.5990    2.2870    0.0590 O   0  0  0  0  0
   -1.2850    0.7990    2.6800 H   0  0  0  0  0
   -3.5100   -1.0300    1.8670 H   0  0  0  0  0
   -5.7870   -0.5820   -0.0220 H   0  0  0  0  0
   -3.8940   -0.0850   -2.2870 H   0  0  0  0  0
   -1.6760    0.9520   -2.2740 H   0  0  0  0  0
    0.1360   -1.5050   -0.3560 H   0  0  0  0  0
    2.1490   -2.8970   -0.3200 H   0  0  0  0  0
    4.9830   -2.1820   -0.9720 H   0  0  0  0  0
    4.5910    0.5910    0.0830 H   0  0  0  0  0
    2.5770    2.6200    0.9660 H   0  0  0  0  0
  1  2  1  0  0  0
  1 19  1  0  0  0
  2  8  2  0  0  0
  3  4  2  0  0  0
  3  2  1  0  0  0
  3 20  1  0  0  0
  4  6  1  0  0  0
  5  4  1  0  0  0
  5 21  1  0  0  0
  6  7  2  0  0  0
  6 22  1  0  0  0
  7 23  1  0  0  0
  8  7  1  0  0  0
  8  9  1  0  0  0
  9 11  1  0  0  0
 10  9  2  0  0  0
 11 12  2  0  0  0
 11 17  1  0  0  0
 12 13  1  0  0  0
 12 24  1  0  0  0
 13 14  2  0  0  0
 13 25  1  0  0  0
 14 15  1  0  0  0
 15 26  1  0  0  0
 16 14  1  0  0  0
 16 27  1  0  0  0
 17 16  2  0  0  0
 18 17  1  0  0  0
 18 28  1  0  0  0
M  END
$$$$
