27N
  CCTOOLS-0919241037

 30 31  0  0  0  0  0  0  0  0999 V2000
   -1.2860    1.0890   -0.7120 C   0  0  0  0  0
   -2.4050    1.8270   -1.0460 C   0  0  0  0  0
   -3.4860    1.8760   -0.1780 C   0  0  0  0  0
   -4.5890    2.6000   -0.5040 O   0  0  0  0  0
   -3.4400    1.1840    1.0240 C   0  0  0  0  0
   -2.3180    0.4480    1.3530 C   0  0  0  0  0
   -1.2440    0.3970    0.4840 C   0  0  0  0  0
   -0.0220   -0.4070    0.8450 C   0  0  0  0  0
   -0.0010   -1.6990    0.0250 C   0  0  0  0  0
    1.5550   -2.5650    0.3090 CL  0  0  0  0  0
   -1.3750   -2.7520    0.5280 CL  0  0  0  0  0
   -0.1560   -1.3020   -1.7260 CL  0  0  0  0  0
    1.2160    0.3980    0.5450 C   0  0  0  0  0
    1.5230    1.5040    1.3170 C   0  0  0  0  0
    2.6580    2.2440    1.0440 C   0  0  0  0  0
    3.4890    1.8770   -0.0040 C   0  0  0  0  0
    4.6050    2.6030   -0.2740 O   0  0  0  0  0
    3.1780    0.7670   -0.7760 C   0  0  0  0  0
    2.0450    0.0270   -0.4970 C   0  0  0  0  0
   -0.4440    1.0510   -1.3880 H   0  0  0  0  0
   -2.4390    2.3650   -1.9820 H   0  0  0  0  0
   -5.2570    2.1010   -0.9930 H   0  0  0  0  0
   -4.2800    1.2210    1.7020 H   0  0  0  0  0
   -2.2820   -0.0900    2.2880 H   0  0  0  0  0
   -0.0490   -0.6510    1.9070 H   0  0  0  0  0
    0.8760    1.7900    2.1320 H   0  0  0  0  0
    2.8970    3.1080    1.6470 H   0  0  0  0  0
    5.3940    2.3000    0.1970 H   0  0  0  0  0
    3.8230    0.4790   -1.5930 H   0  0  0  0  0
    1.8050   -0.8390   -1.0950 H   0  0  0  0  0
  1  2  1  0  0  0
  1 20  1  0  0  0
  2  3  2  0  0  0
  2 21  1  0  0  0
  3  5  1  0  0  0
  3  4  1  0  0  0
  4 22  1  0  0  0
  5 23  1  0  0  0
  6  5  2  0  0  0
  6 24  1  0  0  0
  7  1  2  0  0  0
  7  6  1  0  0  0
  8  7  1  0  0  0
  8 25  1  0  0  0
  9 12  1  0  0  0
  9  8  1  0  0  0
 10  9  1  0  0  0
 11  9  1  0  0  0
 13  8  1  0  0  0
 13 19  2  0  0  0
 14 13  1  0  0  0
 14 26  1  0  0  0
 15 14  2  0  0  0
 15 16  1  0  0  0
 15 27  1  0  0  0
 16 18  2  0  0  0
 17 16  1  0  0  0
 17 28  1  0  0  0
 18 19  1  0  0  0
 18 29  1  0  0  0
 19 30  1  0  0  0
M  END
$$$$
