29N
  CCTOOLS-1004241124

 39 39  0  0  0  0  0  0  0  0999 V2000
   -1.3680   -0.1400    0.7260 N   0  0  0  0  0
   -0.8550    1.1820    1.1170 C   0  0  0  0  0
    0.5620    1.2550    0.7290 N   0  0  0  0  0
    1.4510    0.1490    1.1200 C   0  0  0  0  0
    0.8060   -1.1150    0.7280 N   0  0  0  0  0
   -0.5970   -1.3310    1.1170 C   0  0  0  0  0
   -2.5180   -0.2580    0.0320 C   0  0  0  0  0
   -3.2920    0.9740   -0.3590 C   0  0  0  0  0
   -2.9290   -1.3560   -0.2780 O   0  0  0  0  0
    1.4830   -2.0500    0.0320 C   0  0  0  0  0
    0.8030   -3.3370   -0.3590 C   0  0  0  0  0
    2.6380   -1.8550   -0.2790 O   0  0  0  0  0
    1.0350    2.3080    0.0320 C   0  0  0  0  0
    2.4900    2.3630   -0.3560 C   0  0  0  0  0
    0.2890    3.2110   -0.2830 O   0  0  0  0  0
   -4.5470    0.5640   -1.1330 C   0  0  0  0  0
    1.7850   -4.2160   -1.1350 C   0  0  0  0  0
    2.7630    3.6520   -1.1330 C   0  0  0  0  0
   -1.4180    1.9620    0.6040 H   0  0  0  0  0
   -0.9490    1.3090    2.1960 H   0  0  0  0  0
    2.4080    0.2470    0.6090 H   0  0  0  0  0
    1.6050    0.1650    2.1990 H   0  0  0  0  0
   -0.6630   -1.4740    2.1950 H   0  0  0  0  0
   -0.9900   -2.2090    0.6040 H   0  0  0  0  0
   -3.5810    1.5210    0.5380 H   0  0  0  0  0
   -2.6690    1.6110   -0.9880 H   0  0  0  0  0
    0.4760   -3.8620    0.5390 H   0  0  0  0  0
   -0.0610   -3.1160   -0.9850 H   0  0  0  0  0
    3.1070    2.3440    0.5430 H   0  0  0  0  0
    2.7330    1.5030   -0.9810 H   0  0  0  0  0
   -5.1070    1.4560   -1.4160 H   0  0  0  0  0
   -4.2570    0.0180   -2.0300 H   0  0  0  0  0
   -5.1690   -0.0720   -0.5040 H   0  0  0  0  0
    2.1120   -3.6910   -2.0320 H   0  0  0  0  0
    2.6490   -4.4370   -0.5080 H   0  0  0  0  0
    1.2940   -5.1470   -1.4180 H   0  0  0  0  0
    2.1460    3.6710   -2.0320 H   0  0  0  0  0
    2.5210    4.5110   -0.5080 H   0  0  0  0  0
    3.8150    3.6910   -1.4140 H   0  0  0  0  0
  1  6  1  0  0  0
  2  1  1  0  0  0
  2 19  1  0  0  0
  2 20  1  0  0  0
  3  2  1  0  0  0
  3  4  1  0  0  0
  4  5  1  0  0  0
  4 21  1  0  0  0
  4 22  1  0  0  0
  5  6  1  0  0  0
  5 10  1  0  0  0
  6 23  1  0  0  0
  6 24  1  0  0  0
  7  1  1  0  0  0
  7  9  2  0  0  0
  8  7  1  0  0  0
  8 25  1  0  0  0
  8 26  1  0  0  0
 10 12  2  0  0  0
 11 10  1  0  0  0
 11 27  1  0  0  0
 11 28  1  0  0  0
 13  3  1  0  0  0
 14 13  1  0  0  0
 14 29  1  0  0  0
 14 30  1  0  0  0
 15 13  2  0  0  0
 16  8  1  0  0  0
 16 31  1  0  0  0
 16 32  1  0  0  0
 16 33  1  0  0  0
 17 11  1  0  0  0
 17 34  1  0  0  0
 17 35  1  0  0  0
 17 36  1  0  0  0
 18 14  1  0  0  0
 18 37  1  0  0  0
 18 38  1  0  0  0
 18 39  1  0  0  0
M  END
$$$$
