29O
  CCTOOLS-1004241124

 33 33  0  0  0  0  0  0  0  0999 V2000
   -0.8670   -0.8520   -0.6910 C   0  0  0  0  0
    0.3610   -1.3520   -0.2810 C   0  0  0  0  0
    1.3700   -0.4820    0.1090 C   0  0  0  0  0
    1.1510    0.8890    0.0880 C   0  0  0  0  0
   -0.0770    1.3890   -0.3230 C   0  0  0  0  0
   -1.0840    0.5190   -0.7170 C   0  0  0  0  0
   -1.8840   -1.7300   -1.0830 N   0  0  0  0  0
   -0.2990    2.7700   -0.3430 N   0  0  0  0  0
   -1.5260    3.2600   -0.0780 C   0  0  0  0  0
   -2.0340   -2.9110   -0.4530 C   0  0  0  0  0
   -3.1910   -3.8100   -0.8040 C   0  0  0  0  0
   -1.2370   -3.2520    0.3960 O   0  0  0  0  0
   -2.4150    2.5120    0.2710 O   0  0  0  0  0
   -1.7930    4.7370   -0.2140 C   0  0  0  0  0
    2.6080   -0.9860    0.5230 N   0  0  0  0  0
    3.7410   -0.3240    0.2180 C   0  0  0  0  0
    3.6840    0.7510   -0.3420 O   0  0  0  0  0
    5.0800   -0.9180    0.5720 C   0  0  0  0  0
    0.5320   -2.4180   -0.2640 H   0  0  0  0  0
    1.9350    1.5660    0.3920 H   0  0  0  0  0
   -2.0400    0.9080   -1.0370 H   0  0  0  0  0
   -2.4800   -1.4870   -1.8080 H   0  0  0  0  0
    0.4310    3.3750   -0.5490 H   0  0  0  0  0
   -4.1280   -3.2880   -0.6110 H   0  0  0  0  0
   -3.1360   -4.0790   -1.8590 H   0  0  0  0  0
   -1.1380    5.2880    0.4600 H   0  0  0  0  0
   -1.6030    5.0480   -1.2410 H   0  0  0  0  0
    2.6500   -1.8110    1.0300 H   0  0  0  0  0
    5.1410   -1.0600    1.6510 H   0  0  0  0  0
    5.1940   -1.8800    0.0720 H   0  0  0  0  0
   -3.1110   -5.4400    0.2930 BR  0  0  0  0  0
   -3.6690    5.1080    0.2450 BR  0  0  0  0  0
    6.5120    0.2960   -0.0110 BR  0  0  0  0  0
  1  7  1  0  0  0
  2  1  2  0  0  0
  2 19  1  0  0  0
  3  2  1  0  0  0
  4  3  2  0  0  0
  4  5  1  0  0  0
  4 20  1  0  0  0
  5  6  2  0  0  0
  6  1  1  0  0  0
  6 21  1  0  0  0
  7 10  1  0  0  0
  7 22  1  0  0  0
  8  5  1  0  0  0
  8 23  1  0  0  0
  9 14  1  0  0  0
  9  8  1  0  0  0
 10 11  1  0  0  0
 11 24  1  0  0  0
 11 25  1  0  0  0
 11 31  1  0  0  0
 12 10  2  0  0  0
 13  9  2  0  0  0
 14 26  1  0  0  0
 14 27  1  0  0  0
 14 32  1  0  0  0
 15  3  1  0  0  0
 15 28  1  0  0  0
 16 15  1  0  0  0
 16 17  2  0  0  0
 18 16  1  0  0  0
 18 29  1  0  0  0
 18 30  1  0  0  0
 18 33  1  0  0  0
M  END
$$$$
