2AN
  CCTOOLS-0919241037

 34 36  0  0  0  0  0  0  0  0999 V2000
   -0.1560   -1.0330   -0.6030 C   0  0  0  0  0
    0.0850   -2.3680   -0.8460 C   0  0  0  0  0
   -0.9010   -3.3220   -0.6180 C   0  0  0  0  0
   -2.1290   -2.9660   -0.1480 C   0  0  0  0  0
   -2.4150   -1.6150    0.1140 C   0  0  0  0  0
   -3.6740   -1.2190    0.5980 C   0  0  0  0  0
   -3.9180    0.0980    0.8400 C   0  0  0  0  0
   -2.9370    1.0620    0.6150 C   0  0  0  0  0
    0.8390   -0.0850   -0.8360 N   0  0  0  0  0
   -0.4820    1.9500   -0.1310 S   0  0  0  0  0
   -1.7070    0.7140    0.1460 C   0  0  0  0  0
   -1.4210   -0.6340   -0.1200 C   0  0  0  0  0
    2.1060   -0.2490   -0.2710 C   0  0  0  0  0
    3.1420    0.6060   -0.6270 C   0  0  0  0  0
    4.3940    0.4410   -0.0660 C   0  0  0  0  0
    4.6160   -0.5720    0.8480 C   0  0  0  0  0
    3.5870   -1.4250    1.2040 C   0  0  0  0  0
    2.3320   -1.2630    0.6510 C   0  0  0  0  0
    0.6340    1.5970    0.6740 O   0  0  0  0  0
   -0.4010    2.1260   -1.5390 O   0  0  0  0  0
   -1.0240    3.2550    0.4350 O   0  0  0  0  0
    1.0510   -2.6770   -1.2190 H   0  0  0  0  0
   -0.6900   -4.3630   -0.8160 H   0  0  0  0  0
   -2.8820   -3.7210    0.0220 H   0  0  0  0  0
   -4.4430   -1.9550    0.7760 H   0  0  0  0  0
   -4.8850    0.4010    1.2120 H   0  0  0  0  0
   -3.1560    2.1010    0.8150 H   0  0  0  0  0
    0.6510    0.6890   -1.3900 H   0  0  0  0  0
    2.9700    1.3970   -1.3410 H   0  0  0  0  0
    5.2000    1.1050   -0.3430 H   0  0  0  0  0
    5.5960   -0.6990    1.2840 H   0  0  0  0  0
    3.7640   -2.2150    1.9180 H   0  0  0  0  0
    1.5270   -1.9260    0.9330 H   0  0  0  0  0
   -0.4240    4.0070    0.3330 H   0  0  0  0  0
  1  2  2  0  0  0
  1  9  1  0  0  0
  1 12  1  0  0  0
  2  3  1  0  0  0
  2 22  1  0  0  0
  3  4  2  0  0  0
  3 23  1  0  0  0
  4  5  1  0  0  0
  4 24  1  0  0  0
  5  6  2  0  0  0
  5 12  1  0  0  0
  6  7  1  0  0  0
  6 25  1  0  0  0
  7  8  2  0  0  0
  7 26  1  0  0  0
  8 11  1  0  0  0
  8 27  1  0  0  0
  9 13  1  0  0  0
  9 28  1  0  0  0
 10 11  1  0  0  0
 10 19  2  0  0  0
 10 20  2  0  0  0
 10 21  1  0  0  0
 11 12  2  0  0  0
 13 14  2  0  0  0
 13 18  1  0  0  0
 14 15  1  0  0  0
 14 29  1  0  0  0
 15 16  2  0  0  0
 15 30  1  0  0  0
 16 17  1  0  0  0
 16 31  1  0  0  0
 17 18  2  0  0  0
 17 32  1  0  0  0
 18 33  1  0  0  0
 21 34  1  0  0  0
M  END
$$$$
