2F8
  CCTOOLS-0919241038

 33 33  0  0  1  0  0  0  0  0999 V2000
    3.9460    1.3420   -0.5380 O   0  0  0  0  0
    3.3550    0.0520   -0.7070 C   0  0  0  0  0
    1.9700    0.0360   -0.0560 C   0  0  0  0  0
    1.1070    0.9390   -0.7500 O   0  0  0  0  0
   -0.2110    1.0220   -0.2050 C   0  0  0  0  0
   -0.1370    1.4410    1.1590 O   0  0  0  0  0
    0.2640    2.8020    1.3290 C   0  0  0  0  0
   -0.8800   -0.3530   -0.2820 C   0  0  0  0  0
   -2.2090   -0.2860    0.3300 N   0  0  0  0  0
   -3.2660    0.1250   -0.3980 C   0  0  0  0  0
   -3.1170    0.4390   -1.5600 O   0  0  0  0  0
   -4.6340    0.1940    0.2320 C   0  0  0  0  0
   -0.0210   -1.3730    0.4720 C   0  0  0  0  0
   -0.5990   -2.6730    0.3440 O   0  0  0  0  0
    1.3890   -1.3780   -0.1270 C   0  0  0  0  0
    2.2200   -2.2730    0.6150 O   0  0  0  0  0
    4.8270    1.4250   -0.9270 H   0  0  0  0  0
    3.2590   -0.1680   -1.7700 H   0  0  0  0  0
    3.9870   -0.7010   -0.2360 H   0  0  0  0  0
    2.0550    0.3430    0.9860 H   0  0  0  0  0
   -0.7960    1.7430   -0.7760 H   0  0  0  0  0
   -0.4510    3.4560    0.8290 H   0  0  0  0  0
    0.2950    3.0420    2.3910 H   0  0  0  0  0
    1.2530    2.9460    0.8940 H   0  0  0  0  0
   -0.9730   -0.6550   -1.3250 H   0  0  0  0  0
   -2.3290   -0.5370    1.2600 H   0  0  0  0  0
   -4.5710   -0.1230    1.2720 H   0  0  0  0  0
   -5.0030    1.2190    0.1860 H   0  0  0  0  0
   -5.3160   -0.4620   -0.3080 H   0  0  0  0  0
    0.0310   -1.0990    1.5260 H   0  0  0  0  0
   -0.1060   -3.3700    0.7980 H   0  0  0  0  0
    1.3430   -1.7020   -1.1670 H   0  0  0  0  0
    3.1310   -2.3230    0.2930 H   0  0  0  0  0
  1  2  1  0  0  0
  1 17  1  0  0  0
  2  3  1  0  0  0
  2 18  1  0  0  0
  2 19  1  0  0  0
  3 15  1  0  0  0
  3 20  1  0  0  0
  4  3  1  0  0  0
  4  5  1  0  0  0
  5  6  1  0  0  0
  5  8  1  0  0  0
  5 21  1  0  0  0
  7  6  1  0  0  0
  7 22  1  0  0  0
  7 23  1  0  0  0
  7 24  1  0  0  0
  8 13  1  0  0  0
  8  9  1  0  0  0
  8 25  1  0  0  0
  9 10  1  0  0  0
  9 26  1  0  0  0
 10 12  1  0  0  0
 11 10  2  0  0  0
 12 27  1  0  0  0
 12 28  1  0  0  0
 12 29  1  0  0  0
 13 14  1  0  0  0
 13 30  1  0  0  0
 14 31  1  0  0  0
 15 16  1  0  0  0
 15 13  1  0  0  0
 15 32  1  0  0  0
 16 33  1  0  0  0
M  END
$$$$
