2MG
  CCTOOLS-0919241039

 41 43  0  0  1  0  0  0  0  0999 V2000
   -0.7710    0.4220   -5.2200 P   0  0  0  0  0
   -1.5950   -0.8020   -5.1190 O   0  0  0  0  0
   -1.6640    1.6210   -5.8190 O   0  0  0  0  0
    0.4810    0.1480   -6.1930 O   0  0  0  0  0
   -0.2360    0.8310   -3.7580 O   0  0  0  0  0
    0.5440   -0.2660   -3.2820 C   0  0  0  0  0
    1.0860    0.0590   -1.8890 C   0  0  0  0  0
   -0.0010    0.2630   -0.9610 O   0  0  0  0  0
    1.8690   -1.1440   -1.3190 C   0  0  0  0  0
    3.2740   -0.9650   -1.5150 O   0  0  0  0  0
    1.5260   -1.1360    0.1880 C   0  0  0  0  0
    2.7090   -0.9550    0.9700 O   0  0  0  0  0
    0.5740    0.0680    0.3480 C   0  0  0  0  0
   -0.4740   -0.2360    1.3260 N   0  0  0  0  0
   -1.6760   -0.8260    1.0620 C   0  0  0  0  0
   -2.3600   -0.9440    2.1630 N   0  0  0  0  0
   -1.6400   -0.4380    3.1940 C   0  0  0  0  0
   -1.8720   -0.3010    4.5830 C   0  0  0  0  0
   -2.9150   -0.6850    5.0830 O   0  0  0  0  0
   -0.9070    0.2620    5.3420 N   0  0  0  0  0
    0.2530    0.6940    4.7710 C   0  0  0  0  0
    1.2130    1.2670    5.5660 N   0  0  0  0  0
    2.4700    1.7330    4.9750 C   0  0  0  0  0
    0.4800    0.5720    3.4820 N   0  0  0  0  0
   -0.4270    0.0190    2.6690 C   0  0  0  0  0
   -1.9640    1.3360   -6.6930 H   0  0  0  0  0
    0.9900    0.9690   -6.2310 H   0  0  0  0  0
    1.3760   -0.4430   -3.9630 H   0  0  0  0  0
   -0.0780   -1.1590   -3.2300 H   0  0  0  0  0
    1.7230    0.9420   -1.9270 H   0  0  0  0  0
    1.5350   -2.0720   -1.7830 H   0  0  0  0  0
    3.7090   -1.7430   -1.1410 H   0  0  0  0  0
    1.0210   -2.0610    0.4700 H   0  0  0  0  0
    3.2870   -1.7070    0.7810 H   0  0  0  0  0
    1.1300    0.9540    0.6540 H   0  0  0  0  0
   -2.0090   -1.1470    0.0870 H   0  0  0  0  0
   -1.0430    0.3670    6.2970 H   0  0  0  0  0
    1.0600    1.3640    6.5190 H   0  0  0  0  0
    3.1030    2.1560    5.7550 H   0  0  0  0  0
    2.9840    0.8950    4.5050 H   0  0  0  0  0
    2.2580    2.4960    4.2260 H   0  0  0  0  0
  1  2  2  0  0  0
  1  3  1  0  0  0
  1  4  1  0  0  0
  1  5  1  0  0  0
  3 26  1  0  0  0
  4 27  1  0  0  0
  5  6  1  0  0  0
  6  7  1  0  0  0
  6 28  1  0  0  0
  6 29  1  0  0  0
  7  8  1  0  0  0
  7  9  1  0  0  0
  7 30  1  0  0  0
  8 13  1  0  0  0
  9 10  1  0  0  0
  9 11  1  0  0  0
  9 31  1  0  0  0
 10 32  1  0  0  0
 11 12  1  0  0  0
 11 13  1  0  0  0
 11 33  1  0  0  0
 12 34  1  0  0  0
 13 14  1  0  0  0
 13 35  1  0  0  0
 14 15  1  0  0  0
 14 25  1  0  0  0
 15 16  2  0  0  0
 15 36  1  0  0  0
 16 17  1  0  0  0
 17 18  1  0  0  0
 17 25  2  0  0  0
 18 19  2  0  0  0
 18 20  1  0  0  0
 20 21  1  0  0  0
 20 37  1  0  0  0
 21 22  1  0  0  0
 21 24  2  0  0  0
 22 23  1  0  0  0
 22 38  1  0  0  0
 23 39  1  0  0  0
 23 40  1  0  0  0
 23 41  1  0  0  0
 24 25  1  0  0  0
M  END
$$$$
