2RY
  CCTOOLS-0919241040

 52 56  0  0  0  0  0  0  0  0999 V2000
   -5.3300    2.5610    0.2040 F   0  0  0  0  0
   -4.4750    1.5190   -0.1680 C   0  0  0  0  0
   -3.9760    1.7600   -1.4520 F   0  0  0  0  0
   -3.4110    1.4420    0.7380 F   0  0  0  0  0
   -5.2350    0.2180   -0.1610 C   0  0  0  0  0
   -6.5740    0.2020    0.1820 C   0  0  0  0  0
   -7.2710   -0.9920    0.1890 C   0  0  0  0  0
   -6.6300   -2.1690   -0.1480 C   0  0  0  0  0
   -5.2910   -2.1530   -0.4910 C   0  0  0  0  0
   -4.5950   -0.9590   -0.5020 C   0  0  0  0  0
   -3.1360   -0.9410   -0.8820 C   0  0  0  0  0
   -2.2920   -1.0120    0.3640 C   0  0  0  0  0
   -2.8220   -1.0720    1.4530 O   0  0  0  0  0
   -0.9480   -1.0100    0.2680 N   0  0  0  0  0
   -0.2850   -0.9310   -1.0430 C   0  0  0  0  0
    0.7460    0.2020   -1.0000 C   0  0  0  0  0
   -0.1050   -1.0790    1.4710 C   0  0  0  0  0
    0.9230    0.0560    1.4110 C   0  0  0  0  0
    1.6480   -0.0030    0.1410 N   0  0  0  0  0
    2.6890    0.9080    0.1200 C   0  0  0  0  0
    4.0310    0.4680   -0.0130 C   0  0  0  0  0
    2.4510    2.2080    0.2180 N   0  0  0  0  0
    3.4370    3.0860    0.1930 C   0  0  0  0  0
    4.6940    2.7270    0.0710 N   0  0  0  0  0
    5.0320    1.4330   -0.0290 C   0  0  0  0  0
    6.5950    0.6560   -0.1990 S   0  0  0  0  0
    5.8760   -0.9540   -0.2290 C   0  0  0  0  0
    4.5550   -0.8940   -0.1420 C   0  0  0  0  0
    6.3400   -2.4030   -0.3460 C   0  0  0  0  0
    5.1470   -3.2410    0.1550 C   0  0  0  0  0
    3.9590   -2.3010   -0.1860 C   0  0  0  0  0
   -7.0750    1.1210    0.4450 H   0  0  0  0  0
   -8.3170   -1.0050    0.4570 H   0  0  0  0  0
   -7.1750   -3.1020   -0.1420 H   0  0  0  0  0
   -4.7900   -3.0730   -0.7540 H   0  0  0  0  0
   -2.9160   -1.7970   -1.5200 H   0  0  0  0  0
   -2.9130   -0.0200   -1.4210 H   0  0  0  0  0
    0.2180   -1.8750   -1.2560 H   0  0  0  0  0
   -1.0250   -0.7280   -1.8160 H   0  0  0  0  0
    1.3230    0.2040   -1.9250 H   0  0  0  0  0
    0.2320    1.1570   -0.8900 H   0  0  0  0  0
   -0.7250   -0.9650    2.3600 H   0  0  0  0  0
    0.4090   -2.0400    1.5040 H   0  0  0  0  0
    0.4100    1.0150    1.4850 H   0  0  0  0  0
    1.6250   -0.0450    2.2390 H   0  0  0  0  0
    3.2010    4.1370    0.2720 H   0  0  0  0  0
    6.5640   -2.6470   -1.3850 H   0  0  0  0  0
    5.0610   -4.1730   -0.4030 H   0  0  0  0  0
    3.1860   -2.4090    0.5750 H   0  0  0  0  0
    7.2140   -2.5740    0.2820 H   0  0  0  0  0
    5.2280   -3.4350    1.2250 H   0  0  0  0  0
    3.5500   -2.5090   -1.1750 H   0  0  0  0  0
  1  2  1  0  0  0
  2  4  1  0  0  0
  2  5  1  0  0  0
  3  2  1  0  0  0
  5  6  2  0  0  0
  5 10  1  0  0  0
  6  7  1  0  0  0
  6 32  1  0  0  0
  7  8  2  0  0  0
  7 33  1  0  0  0
  8 34  1  0  0  0
  9  8  1  0  0  0
  9 35  1  0  0  0
 10  9  2  0  0  0
 11 10  1  0  0  0
 11 36  1  0  0  0
 11 37  1  0  0  0
 12 11  1  0  0  0
 13 12  2  0  0  0
 14 17  1  0  0  0
 14 12  1  0  0  0
 15 14  1  0  0  0
 15 38  1  0  0  0
 15 39  1  0  0  0
 16 19  1  0  0  0
 16 15  1  0  0  0
 16 40  1  0  0  0
 16 41  1  0  0  0
 17 42  1  0  0  0
 17 43  1  0  0  0
 18 17  1  0  0  0
 18 44  1  0  0  0
 18 45  1  0  0  0
 19 18  1  0  0  0
 20 21  2  0  0  0
 20 19  1  0  0  0
 21 28  1  0  0  0
 22 20  1  0  0  0
 23 24  1  0  0  0
 23 22  2  0  0  0
 23 46  1  0  0  0
 24 25  2  0  0  0
 25 26  1  0  0  0
 25 21  1  0  0  0
 26 27  1  0  0  0
 27 28  2  0  0  0
 27 29  1  0  0  0
 28 31  1  0  0  0
 29 30  1  0  0  0
 29 47  1  0  0  0
 29 50  1  0  0  0
 30 48  1  0  0  0
 30 51  1  0  0  0
 31 30  1  0  0  0
 31 49  1  0  0  0
 31 52  1  0  0  0
M  END
$$$$
