2TL
  CCTOOLS-1004241126

 17 16  0  0  1  0  0  0  0  0999 V2000
    0.1590    1.9150    0.2800 N   0  0  0  0  0
    0.0940    0.4590    0.4600 C   0  0  0  0  0
    1.1690   -0.2100   -0.3990 C   0  0  0  0  0
    1.1060   -1.6260   -0.2240 O   0  0  0  0  0
    2.5490    0.2960    0.0270 C   0  0  0  0  0
   -1.2650   -0.0390    0.0400 C   0  0  0  0  0
   -1.9570    0.6340   -0.6870 O   0  0  0  0  0
   -1.7070   -1.2300    0.4730 O   0  0  0  0  0
    0.0060    2.1680   -0.6850 H   0  0  0  0  0
   -0.4990    2.3840    0.8850 H   0  0  0  0  0
    0.2620    0.2140    1.5090 H   0  0  0  0  0
    1.0010    0.0350   -1.4470 H   0  0  0  0  0
    1.2470   -1.9170    0.6880 H   0  0  0  0  0
    2.7170    0.0510    1.0760 H   0  0  0  0  0
    3.3150   -0.1800   -0.5840 H   0  0  0  0  0
    2.5970    1.3770   -0.1060 H   0  0  0  0  0
   -2.5850   -1.5070    0.1770 H   0  0  0  0  0
  1  2  1  0  0  0
  1  9  1  0  0  0
  1 10  1  0  0  0
  2  3  1  0  0  0
  2  6  1  0  0  0
  2 11  1  0  0  0
  3  4  1  0  0  0
  3  5  1  0  0  0
  3 12  1  0  0  0
  4 13  1  0  0  0
  5 14  1  0  0  0
  5 15  1  0  0  0
  5 16  1  0  0  0
  6  7  2  0  0  0
  6  8  1  0  0  0
  8 17  1  0  0  0
M  END
$$$$
