2V4
  CCTOOLS-0919241040

 39 42  0  0  1  0  0  0  0  0999 V2000
   -0.1020   -2.3580    0.3670 O   0  0  0  0  0
   -0.6650   -1.3040    0.1470 C   0  0  0  0  0
    0.1130   -0.0530    0.0050 C   0  0  0  0  0
    1.5050   -0.0910   -0.1690 C   0  0  0  0  0
    2.2020   -1.3910   -0.2030 C   0  0  0  0  0
    1.6360   -2.4150    0.1170 O   0  0  0  0  0
    3.6480   -1.4030   -0.6510 C   0  0  0  0  0
    4.3430   -0.2060    0.0120 C   0  0  0  0  0
    5.8340   -0.2280   -0.3290 C   0  0  0  0  0
    4.1760   -0.2830    1.4290 O   0  0  0  0  0
    3.7220    1.0890   -0.5040 C   0  0  0  0  0
    2.2300    1.0980   -0.3060 C   0  0  0  0  0
    1.5710    2.3100   -0.2610 C   0  0  0  0  0
    0.1910    2.3660   -0.0870 C   0  0  0  0  0
   -0.4380    3.5650   -0.0460 O   0  0  0  0  0
   -0.5480    1.1840    0.0450 C   0  0  0  0  0
   -2.0130    1.2270    0.2220 C   0  0  0  0  0
   -2.5670    2.2720    0.5060 O   0  0  0  0  0
   -2.7970   -0.0110    0.0510 C   0  0  0  0  0
   -2.1370   -1.2560    0.0120 C   0  0  0  0  0
   -2.8740   -2.4240   -0.1470 C   0  0  0  0  0
   -4.2540   -2.3600   -0.2680 C   0  0  0  0  0
   -4.9060   -1.1450   -0.2330 C   0  0  0  0  0
   -4.1870    0.0380   -0.0770 C   0  0  0  0  0
   -4.8340    1.2300   -0.0420 O   0  0  0  0  0
    4.1270   -2.3300   -0.3360 H   0  0  0  0  0
    3.7010   -1.3070   -1.7360 H   0  0  0  0  0
    5.9610   -0.1680   -1.4100 H   0  0  0  0  0
    6.3270    0.6220    0.1430 H   0  0  0  0  0
    6.2770   -1.1540    0.0380 H   0  0  0  0  0
    4.5470   -1.0840    1.8250 H   0  0  0  0  0
    4.1580    1.9320    0.0320 H   0  0  0  0  0
    3.9400    1.1910   -1.5670 H   0  0  0  0  0
    2.1330    3.2270   -0.3620 H   0  0  0  0  0
   -0.7320    3.8850   -0.9100 H   0  0  0  0  0
   -2.3730   -3.3800   -0.1760 H   0  0  0  0  0
   -4.8230   -3.2700   -0.3920 H   0  0  0  0  0
   -5.9810   -1.1110   -0.3330 H   0  0  0  0  0
   -5.1010    1.5070    0.8450 H   0  0  0  0  0
  2  1  2  0  0  0
  2  3  1  0  0  0
  3  4  2  0  0  0
  4 12  1  0  0  0
  4  5  1  0  0  0
  5  7  1  0  0  0
  6  5  2  0  0  0
  7  8  1  0  0  0
  7 26  1  0  0  0
  7 27  1  0  0  0
  8  9  1  0  0  0
  8 10  1  0  0  0
  9 28  1  0  0  0
  9 29  1  0  0  0
  9 30  1  0  0  0
 10 31  1  0  0  0
 11  8  1  0  0  0
 11 32  1  0  0  0
 11 33  1  0  0  0
 12 11  1  0  0  0
 13 12  2  0  0  0
 13 34  1  0  0  0
 14 13  1  0  0  0
 15 14  1  0  0  0
 15 35  1  0  0  0
 16 14  2  0  0  0
 16  3  1  0  0  0
 17 16  1  0  0  0
 18 17  2  0  0  0
 19 17  1  0  0  0
 19 20  2  0  0  0
 20  2  1  0  0  0
 21 20  1  0  0  0
 21 36  1  0  0  0
 22 21  2  0  0  0
 22 37  1  0  0  0
 23 24  2  0  0  0
 23 22  1  0  0  0
 23 38  1  0  0  0
 24 19  1  0  0  0
 25 24  1  0  0  0
 25 39  1  0  0  0
M  END
$$$$
