2WL
  CCTOOLS-0919241041

 48 51  0  0  0  0  0  0  0  0999 V2000
    5.2500   -2.3170   -0.3720 CL  0  0  0  0  0
    5.5400   -0.7130    0.2250 C   0  0  0  0  0
    6.7900   -0.3670    0.7010 C   0  0  0  0  0
    7.0220    0.9110    1.1770 C   0  0  0  0  0
    6.0030    1.8460    1.1790 C   0  0  0  0  0
    4.7510    1.5080    0.7040 C   0  0  0  0  0
    4.5160    0.2280    0.2200 C   0  0  0  0  0
    3.2520   -0.1160   -0.2660 N   0  0  0  0  0
    2.9180    0.6650   -1.4650 C   0  0  0  0  0
    1.6140    0.1350   -2.0690 C   0  0  0  0  0
    2.2270    0.0410    0.7740 C   0  0  0  0  0
    0.8940   -0.5140    0.2620 C   0  0  0  0  0
    0.5810    0.1320   -1.0220 N   0  0  0  0  0
   -0.6200    0.7060   -1.2330 C   0  0  0  0  0
   -0.8210    1.3390   -2.2510 O   0  0  0  0  0
   -1.6900    0.5650   -0.2300 C   0  0  0  0  0
   -2.8980    1.1990   -0.2450 C   0  0  0  0  0
   -1.6560   -0.2240    0.8740 N   0  0  0  0  0
   -2.7770   -0.0900    1.5220 C   0  0  0  0  0
   -3.5720    0.7860    0.8540 N   0  0  0  0  0
   -4.9180    1.2070    1.2500 C   0  0  0  0  0
   -5.9350    0.2760    0.6420 C   0  0  0  0  0
   -6.4620    0.5480   -0.6060 C   0  0  0  0  0
   -6.3360   -0.8540    1.3300 C   0  0  0  0  0
   -7.2690   -1.7080    0.7720 C   0  0  0  0  0
   -7.8010   -1.4330   -0.4740 C   0  0  0  0  0
   -7.3950   -0.3060   -1.1640 C   0  0  0  0  0
    7.5880   -1.0950    0.7020 H   0  0  0  0  0
    8.0000    1.1790    1.5480 H   0  0  0  0  0
    6.1880    2.8430    1.5520 H   0  0  0  0  0
    3.9560    2.2390    0.7060 H   0  0  0  0  0
    2.7940    1.7130   -1.1930 H   0  0  0  0  0
    3.7220    0.5720   -2.1950 H   0  0  0  0  0
    1.3010    0.7810   -2.8890 H   0  0  0  0  0
    1.7660   -0.8800   -2.4360 H   0  0  0  0  0
    2.5290   -0.5050    1.6680 H   0  0  0  0  0
    2.1120    1.0980    1.0150 H   0  0  0  0  0
    0.9770   -1.5920    0.1190 H   0  0  0  0  0
    0.1060   -0.3010    0.9840 H   0  0  0  0  0
   -3.2490    1.8960   -0.9910 H   0  0  0  0  0
   -3.0360   -0.5970    2.4400 H   0  0  0  0  0
   -5.0030    1.1780    2.3370 H   0  0  0  0  0
   -5.1000    2.2230    0.8990 H   0  0  0  0  0
   -6.1460    1.4290   -1.1460 H   0  0  0  0  0
   -5.9210   -1.0700    2.3030 H   0  0  0  0  0
   -7.5820   -2.5920    1.3090 H   0  0  0  0  0
   -8.5290   -2.1000   -0.9100 H   0  0  0  0  0
   -7.8070   -0.0930   -2.1400 H   0  0  0  0  0
  1  2  1  0  0  0
  2  3  2  0  0  0
  2  7  1  0  0  0
  3  4  1  0  0  0
  3 28  1  0  0  0
  4  5  2  0  0  0
  4 29  1  0  0  0
  5 30  1  0  0  0
  6  5  1  0  0  0
  6 31  1  0  0  0
  7  6  2  0  0  0
  8  7  1  0  0  0
  8 11  1  0  0  0
  9  8  1  0  0  0
  9 32  1  0  0  0
  9 33  1  0  0  0
 10  9  1  0  0  0
 10 13  1  0  0  0
 10 34  1  0  0  0
 10 35  1  0  0  0
 11 36  1  0  0  0
 11 37  1  0  0  0
 12 11  1  0  0  0
 12 38  1  0  0  0
 12 39  1  0  0  0
 13 14  1  0  0  0
 13 12  1  0  0  0
 14 16  1  0  0  0
 15 14  2  0  0  0
 16 18  1  0  0  0
 16 17  2  0  0  0
 17 20  1  0  0  0
 17 40  1  0  0  0
 18 19  2  0  0  0
 19 20  1  0  0  0
 19 41  1  0  0  0
 20 21  1  0  0  0
 21 22  1  0  0  0
 21 42  1  0  0  0
 21 43  1  0  0  0
 22 24  2  0  0  0
 22 23  1  0  0  0
 23 27  2  0  0  0
 23 44  1  0  0  0
 24 25  1  0  0  0
 24 45  1  0  0  0
 25 26  2  0  0  0
 25 46  1  0  0  0
 26 47  1  0  0  0
 27 26  1  0  0  0
 27 48  1  0  0  0
M  END
$$$$
