2WQ
  CCTOOLS-0919241041

 28 28  0  0  0  0  0  0  0  0999 V2000
   -1.3820   -0.6340    0.0030 O   0  0  0  0  0
   -2.8100   -0.6750   -0.0020 C   0  0  0  0  0
   -3.2710   -2.1090   -0.0000 C   0  0  0  0  0
   -4.5830   -2.3930   -0.0040 O   0  0  0  0  0
   -2.4600   -3.0050    0.0050 O   0  0  0  0  0
   -0.8010    0.5920    0.0020 C   0  0  0  0  0
    0.5970    0.7090    0.0010 C   0  0  0  0  0
    1.4410   -0.4990    0.0010 C   0  0  0  0  0
    0.9260   -1.6010    0.0010 O   0  0  0  0  0
    2.7840   -0.3830   -0.0000 N   0  0  0  0  0
    3.6230   -1.5830   -0.0010 C   0  0  0  0  0
    5.0420   -1.1910   -0.0010 C   0  0  0  0  0
    6.1730   -0.8770   -0.0020 C   0  0  0  0  0
    1.1840    1.9770    0.0000 C   0  0  0  0  0
    0.3910    3.1020    0.0000 C   0  0  0  0  0
   -0.9920    2.9840    0.0010 C   0  0  0  0  0
   -1.7620    4.0940    0.0010 F   0  0  0  0  0
   -1.5860    1.7340   -0.0040 C   0  0  0  0  0
   -3.1920   -0.1690    0.8850 H   0  0  0  0  0
   -3.1850   -0.1740   -0.8950 H   0  0  0  0  0
   -4.8310   -3.3280   -0.0030 H   0  0  0  0  0
    3.1940    0.4960   -0.0000 H   0  0  0  0  0
    3.4110   -2.1750    0.8900 H   0  0  0  0  0
    3.4100   -2.1760   -0.8900 H   0  0  0  0  0
    7.1850   -0.5970   -0.0030 H   0  0  0  0  0
    2.2600    2.0740   -0.0000 H   0  0  0  0  0
    0.8470    4.0820   -0.0000 H   0  0  0  0  0
   -2.6630    1.6480   -0.0080 H   0  0  0  0  0
  1  2  1  0  0  0
  2 19  1  0  0  0
  2 20  1  0  0  0
  3  2  1  0  0  0
  3  4  1  0  0  0
  4 21  1  0  0  0
  5  3  2  0  0  0
  6  1  1  0  0  0
  6 18  2  0  0  0
  7  6  1  0  0  0
  8 10  1  0  0  0
  8  7  1  0  0  0
  9  8  2  0  0  0
 10 22  1  0  0  0
 11 12  1  0  0  0
 11 10  1  0  0  0
 11 23  1  0  0  0
 11 24  1  0  0  0
 12 13  3  0  0  0
 13 25  1  0  0  0
 14  7  2  0  0  0
 14 15  1  0  0  0
 14 26  1  0  0  0
 15 16  2  0  0  0
 15 27  1  0  0  0
 16 18  1  0  0  0
 16 17  1  0  0  0
 18 28  1  0  0  0
M  END
$$$$
