2WR
  CCTOOLS-0919241041

 23 23  0  0  0  0  0  0  0  0999 V2000
    0.3430    0.1600    0.0020 C   0  0  0  0  0
    1.2960   -0.8690    0.0000 C   0  0  0  0  0
    0.8650   -2.2790   -0.0010 C   0  0  0  0  0
    1.7840   -3.2640   -0.0020 N   0  0  0  0  0
   -0.3200   -2.5520    0.0000 O   0  0  0  0  0
    2.6570   -0.5510   -0.0010 C   0  0  0  0  0
    3.0550    0.7670   -0.0010 C   0  0  0  0  0
    2.1090    1.7830    0.0010 C   0  0  0  0  0
    2.5090    3.0740    0.0020 F   0  0  0  0  0
    0.7590    1.4820   -0.0040 C   0  0  0  0  0
   -0.9800   -0.1380    0.0030 O   0  0  0  0  0
   -1.8930    0.9620   -0.0020 C   0  0  0  0  0
   -3.3070    0.4410    0.0000 C   0  0  0  0  0
   -4.3380    1.3010   -0.0040 O   0  0  0  0  0
   -3.5130   -0.7490    0.0050 O   0  0  0  0  0
    2.7290   -3.0470   -0.0020 H   0  0  0  0  0
    1.5000   -4.1920   -0.0020 H   0  0  0  0  0
    3.3960   -1.3390   -0.0020 H   0  0  0  0  0
    4.1070    1.0120   -0.0010 H   0  0  0  0  0
    0.0280    2.2770   -0.0080 H   0  0  0  0  0
   -1.7300    1.5730    0.8850 H   0  0  0  0  0
   -1.7290    1.5660   -0.8950 H   0  0  0  0  0
   -5.2270    0.9190   -0.0020 H   0  0  0  0  0
  1 11  1  0  0  0
  1 10  2  0  0  0
  2  1  1  0  0  0
  3  4  1  0  0  0
  3  2  1  0  0  0
  4 16  1  0  0  0
  4 17  1  0  0  0
  5  3  2  0  0  0
  6  2  2  0  0  0
  6  7  1  0  0  0
  6 18  1  0  0  0
  7  8  2  0  0  0
  7 19  1  0  0  0
  8 10  1  0  0  0
  8  9  1  0  0  0
 10 20  1  0  0  0
 11 12  1  0  0  0
 12 21  1  0  0  0
 12 22  1  0  0  0
 13 12  1  0  0  0
 13 14  1  0  0  0
 14 23  1  0  0  0
 15 13  2  0  0  0
M  END
$$$$
