2XE
  CCTOOLS-0919241041

 13 13  0  0  0  0  0  0  0  0999 V2000
    3.9790   -0.0000   -0.0250 S   0  0  0  0  0
   -0.5510    0.0000   -0.0080 C   0  0  0  0  0
   -2.4420   -0.0000    0.0060 BR  0  0  0  0  0
    0.1400    1.1990   -0.0110 C   0  0  0  0  0
    1.5200    1.2030   -0.0160 C   0  0  0  0  0
    2.2170   -0.0000   -0.0180 C   0  0  0  0  0
    1.5200   -1.2030   -0.0160 C   0  0  0  0  0
    0.1400   -1.1990   -0.0110 C   0  0  0  0  0
    4.2860    0.0000    1.2840 H   0  0  0  0  0
   -0.4020    2.1340   -0.0090 H   0  0  0  0  0
    2.0590    2.1390   -0.0180 H   0  0  0  0  0
    2.0590   -2.1390   -0.0180 H   0  0  0  0  0
   -0.4020   -2.1340   -0.0040 H   0  0  0  0  0
  1  6  1  0  0  0
  1  9  1  0  0  0
  2  8  1  0  0  0
  2  3  1  0  0  0
  4  2  2  0  0  0
  4 10  1  0  0  0
  5  6  2  0  0  0
  5  4  1  0  0  0
  5 11  1  0  0  0
  6  7  1  0  0  0
  7  8  2  0  0  0
  7 12  1  0  0  0
  8 13  1  0  0  0
M  END
$$$$
