2XG
  CCTOOLS-1004241126

 13 13  0  0  0  0  0  0  0  0999 V2000
   -2.9670   -0.1880   -0.0320 S   0  0  0  0  0
    1.5050    0.5450    0.0020 C   0  0  0  0  0
    2.8380    0.7640    0.0120 F   0  0  0  0  0
    1.0160   -0.7540   -0.0030 C   0  0  0  0  0
    1.8730   -1.7980    0.0020 F   0  0  0  0  0
   -0.3480   -0.9790   -0.0130 C   0  0  0  0  0
   -1.2280    0.0960   -0.0180 C   0  0  0  0  0
   -0.7350    1.3950   -0.0130 C   0  0  0  0  0
    0.6280    1.6160    0.0030 C   0  0  0  0  0
   -3.2760   -0.2390    1.2770 H   0  0  0  0  0
   -0.7290   -1.9900   -0.0170 H   0  0  0  0  0
   -1.4180    2.2310   -0.0170 H   0  0  0  0  0
    1.0110    2.6260    0.0070 H   0  0  0  0  0
  1 10  1  0  0  0
  2  4  1  0  0  0
  3  2  1  0  0  0
  4  5  1  0  0  0
  4  6  2  0  0  0
  6 11  1  0  0  0
  7  6  1  0  0  0
  7  1  1  0  0  0
  8  7  2  0  0  0
  8 12  1  0  0  0
  9  2  2  0  0  0
  9  8  1  0  0  0
  9 13  1  0  0  0
M  END
$$$$
