2XH
  CCTOOLS-1004241126

 19 20  0  0  0  0  0  0  0  0999 V2000
    1.9120   -1.8300    0.0090 C   0  0  0  0  0
    2.8530   -0.8020   -0.0030 C   0  0  0  0  0
    2.4650    0.5020   -0.0110 C   0  0  0  0  0
    1.0960    0.8210   -0.0060 C   0  0  0  0  0
    0.6590    2.1570   -0.0090 C   0  0  0  0  0
   -0.6730    2.4380    0.0000 C   0  0  0  0  0
   -1.6220    1.4200    0.0120 C   0  0  0  0  0
   -1.2350    0.0950    0.0160 C   0  0  0  0  0
    0.1400   -0.2250    0.0060 C   0  0  0  0  0
    0.5770   -1.5580    0.0080 C   0  0  0  0  0
   -2.4460   -1.1840    0.0320 S   0  0  0  0  0
    2.2460   -2.8570    0.0150 H   0  0  0  0  0
    3.9050   -1.0450   -0.0070 H   0  0  0  0  0
    3.2050    1.2890   -0.0200 H   0  0  0  0  0
    1.3810    2.9610   -0.0180 H   0  0  0  0  0
   -0.9990    3.4670   -0.0020 H   0  0  0  0  0
   -2.6720    1.6690    0.0190 H   0  0  0  0  0
   -0.1410   -2.3650    0.0170 H   0  0  0  0  0
   -2.6650   -1.4110   -1.2760 H   0  0  0  0  0
  1 12  1  0  0  0
  2  1  1  0  0  0
  2 13  1  0  0  0
  3  2  2  0  0  0
  3 14  1  0  0  0
  4  9  1  0  0  0
  4  3  1  0  0  0
  5  4  2  0  0  0
  5 15  1  0  0  0
  6  7  2  0  0  0
  6  5  1  0  0  0
  6 16  1  0  0  0
  7  8  1  0  0  0
  7 17  1  0  0  0
  8 11  1  0  0  0
  8  9  2  0  0  0
  9 10  1  0  0  0
 10  1  2  0  0  0
 10 18  1  0  0  0
 11 19  1  0  0  0
M  END
$$$$
