2XO
  CCTOOLS-1004241126

 19 20  0  0  0  0  0  0  0  0999 V2000
    3.4290   -0.0410   -0.7030 S   0  0  0  0  0
    2.4980   -0.0080    0.8530 C   0  0  0  0  0
   -1.0000   -0.6940    0.1590 C   0  0  0  0  0
    0.2800   -1.0610    0.4230 N   0  0  0  0  0
    1.0210    0.0010    0.5540 C   0  0  0  0  0
    0.2670    1.1210    0.3830 N   0  0  0  0  0
   -1.0250    0.7100    0.1220 C   0  0  0  0  0
   -2.2170    1.3740   -0.1330 C   0  0  0  0  0
   -3.3670    0.6490   -0.3610 C   0  0  0  0  0
   -3.3400   -0.7390   -0.3350 C   0  0  0  0  0
   -2.1800   -1.4080   -0.0670 C   0  0  0  0  0
    4.7090   -0.0460   -0.2900 H   0  0  0  0  0
    2.7440   -0.8920    1.4420 H   0  0  0  0  0
    2.7600    0.8880    1.4150 H   0  0  0  0  0
    0.5810    2.0370    0.4300 H   0  0  0  0  0
   -2.2430    2.4540   -0.1540 H   0  0  0  0  0
   -4.2950    1.1640   -0.5590 H   0  0  0  0  0
   -4.2490   -1.2940   -0.5150 H   0  0  0  0  0
   -2.1710   -2.4880   -0.0470 H   0  0  0  0  0
  1  2  1  0  0  0
  1 12  1  0  0  0
  2 13  1  0  0  0
  2 14  1  0  0  0
  3 11  1  0  0  0
  3  4  1  0  0  0
  5  2  1  0  0  0
  5  4  2  0  0  0
  6  5  1  0  0  0
  6 15  1  0  0  0
  7  6  1  0  0  0
  7  3  2  0  0  0
  8  9  2  0  0  0
  8  7  1  0  0  0
  8 16  1  0  0  0
  9 10  1  0  0  0
  9 17  1  0  0  0
 10 11  2  0  0  0
 10 18  1  0  0  0
 11 19  1  0  0  0
M  END
$$$$
