2XR
  CCTOOLS-1004241126

 21 22  0  0  0  0  0  0  0  0999 V2000
    2.6220    0.7360    0.0030 C   0  0  0  0  0
    1.3760   -0.1120   -0.0020 C   0  0  0  0  0
    1.4660   -1.3220   -0.0060 O   0  0  0  0  0
    0.1000    0.5050   -0.0020 C   0  0  0  0  0
   -1.2120   -0.1720   -0.0000 C   0  0  0  0  0
   -1.6110   -1.5060    0.0010 C   0  0  0  0  0
   -2.9540   -1.8150    0.0020 C   0  0  0  0  0
   -3.9050   -0.8050    0.0020 C   0  0  0  0  0
   -3.5220    0.5190    0.0000 C   0  0  0  0  0
   -2.1710    0.8510   -0.0010 C   0  0  0  0  0
   -1.4980    2.0560   -0.0030 N   0  0  0  0  0
   -0.1660    1.8570    0.0030 C   0  0  0  0  0
    2.6350    1.3680   -0.8850 H   0  0  0  0  0
    2.6330    1.3620    0.8950 H   0  0  0  0  0
   -0.8730   -2.2940    0.0020 H   0  0  0  0  0
   -3.2670   -2.8490    0.0030 H   0  0  0  0  0
   -4.9540   -1.0590    0.0020 H   0  0  0  0  0
   -4.2710    1.2970   -0.0010 H   0  0  0  0  0
   -1.9260    2.9270   -0.0040 H   0  0  0  0  0
    0.5800    2.6380    0.0070 H   0  0  0  0  0
    4.0750   -0.3320    0.0010 CL  0  0  0  0  0
  1 13  1  0  0  0
  1 14  1  0  0  0
  1 21  1  0  0  0
  2  1  1  0  0  0
  2  4  1  0  0  0
  3  2  2  0  0  0
  4 12  2  0  0  0
  5  4  1  0  0  0
  5 10  2  0  0  0
  6  7  2  0  0  0
  6  5  1  0  0  0
  6 15  1  0  0  0
  7  8  1  0  0  0
  7 16  1  0  0  0
  8  9  2  0  0  0
  8 17  1  0  0  0
  9 18  1  0  0  0
 10  9  1  0  0  0
 10 11  1  0  0  0
 11 19  1  0  0  0
 12 11  1  0  0  0
 12 20  1  0  0  0
M  END
$$$$
