2YZ
  CCTOOLS-0919241041

 36 37  0  0  0  0  0  0  0  0999 V2000
   -2.5120   -0.6770    0.0030 O   0  0  0  0  0
   -3.9350   -0.8100   -0.0020 C   0  0  0  0  0
   -4.3030   -2.2710   -0.0010 C   0  0  0  0  0
   -3.4360   -3.1130    0.0040 O   0  0  0  0  0
   -5.5940   -2.6380   -0.0050 O   0  0  0  0  0
   -2.0110    0.5830    0.0020 C   0  0  0  0  0
   -0.6240    0.7900    0.0020 C   0  0  0  0  0
    0.2960   -0.3620    0.0010 C   0  0  0  0  0
    1.6290   -0.1590    0.0010 N   0  0  0  0  0
    2.5440   -1.3040    0.0010 C   0  0  0  0  0
    3.9670   -0.8090   -0.0000 C   0  0  0  0  0
    4.6170   -0.5770   -1.1980 C   0  0  0  0  0
    5.9220   -0.1190   -1.1990 C   0  0  0  0  0
    6.5750    0.1090   -0.0020 C   0  0  0  0  0
    5.9240   -0.1230    1.1960 C   0  0  0  0  0
    4.6210   -0.5820    1.1960 C   0  0  0  0  0
   -0.1470   -1.4940    0.0020 O   0  0  0  0  0
   -0.1190    2.0930    0.0010 C   0  0  0  0  0
   -0.9830    3.1650    0.0010 C   0  0  0  0  0
   -2.3550    2.9580    0.0010 C   0  0  0  0  0
   -3.1950    4.0160    0.0010 F   0  0  0  0  0
   -2.8680    1.6720   -0.0030 C   0  0  0  0  0
   -4.3480   -0.3310    0.8850 H   0  0  0  0  0
   -4.3410   -0.3340   -0.8950 H   0  0  0  0  0
   -5.7810   -3.5870   -0.0040 H   0  0  0  0  0
    1.9820    0.7440    0.0000 H   0  0  0  0  0
    2.3690   -1.9080    0.8910 H   0  0  0  0  0
    2.3690   -1.9090   -0.8890 H   0  0  0  0  0
    4.1070   -0.7550   -2.1330 H   0  0  0  0  0
    6.4300    0.0620   -2.1340 H   0  0  0  0  0
    7.5940    0.4660   -0.0020 H   0  0  0  0  0
    6.4350    0.0550    2.1310 H   0  0  0  0  0
    4.1110   -0.7590    2.1320 H   0  0  0  0  0
    0.9490    2.2590    0.0010 H   0  0  0  0  0
   -0.5910    4.1710    0.0000 H   0  0  0  0  0
   -3.9370    1.5180   -0.0070 H   0  0  0  0  0
  1  2  1  0  0  0
  2 23  1  0  0  0
  2 24  1  0  0  0
  3  2  1  0  0  0
  3  5  1  0  0  0
  4  3  2  0  0  0
  5 25  1  0  0  0
  6  1  1  0  0  0
  6 22  2  0  0  0
  7  6  1  0  0  0
  8  7  1  0  0  0
  9  8  1  0  0  0
  9 26  1  0  0  0
 10  9  1  0  0  0
 10 27  1  0  0  0
 10 28  1  0  0  0
 11 16  1  0  0  0
 11 10  1  0  0  0
 12 11  2  0  0  0
 12 29  1  0  0  0
 13 14  2  0  0  0
 13 12  1  0  0  0
 13 30  1  0  0  0
 14 15  1  0  0  0
 14 31  1  0  0  0
 15 16  2  0  0  0
 15 32  1  0  0  0
 16 33  1  0  0  0
 17  8  2  0  0  0
 18  7  2  0  0  0
 18 19  1  0  0  0
 18 34  1  0  0  0
 19 20  2  0  0  0
 19 35  1  0  0  0
 20 22  1  0  0  0
 20 21  1  0  0  0
 22 36  1  0  0  0
M  END
$$$$
