30L
  CCTOOLS-0919241041

 38 39  0  0  0  0  0  0  0  0999 V2000
    0.6870    0.1970    0.4720 N   0  0  0  0  0
    1.5810    1.3530    0.5760 C   0  0  0  0  0
    2.9980    0.8770    0.7680 C   0  0  0  0  0
    3.8040    0.6460   -0.3310 C   0  0  0  0  0
    5.1040    0.2090   -0.1550 C   0  0  0  0  0
    5.9660   -0.0390   -1.3320 N   0  3  0  0  0
    5.5310    0.1420   -2.4550 O   0  0  0  0  0
    7.1120   -0.4240   -1.1770 O   0  5  0  0  0
    5.5970    0.0050    1.1190 C   0  0  0  0  0
    4.7920    0.2370    2.2190 C   0  0  0  0  0
    3.4930    0.6780    2.0430 C   0  0  0  0  0
   -0.6350    0.3810    0.2900 C   0  0  0  0  0
   -1.0880    1.5070    0.2180 O   0  0  0  0  0
   -1.5330   -0.7830    0.1790 C   0  0  0  0  0
   -1.0180   -2.0790    0.2670 C   0  0  0  0  0
   -1.8610   -3.1620    0.1630 C   0  0  0  0  0
   -3.2230   -2.9740   -0.0300 C   0  0  0  0  0
   -4.0420   -4.0430   -0.1310 F   0  0  0  0  0
   -3.7450   -1.6950   -0.1180 C   0  0  0  0  0
   -2.9100   -0.5950   -0.0100 C   0  0  0  0  0
   -3.4220    0.6590   -0.0920 O   0  0  0  0  0
   -4.8330    0.7720   -0.2850 C   0  0  0  0  0
   -5.2150    2.2280   -0.3520 C   0  0  0  0  0
   -4.3660    3.0820   -0.2440 O   0  0  0  0  0
   -6.4990    2.5780   -0.5300 O   0  0  0  0  0
    1.0480   -0.7020    0.5290 H   0  0  0  0  0
    1.5160    1.9450   -0.3370 H   0  0  0  0  0
    1.2840    1.9650    1.4280 H   0  0  0  0  0
    3.4180    0.8060   -1.3270 H   0  0  0  0  0
    6.6130   -0.3360    1.2570 H   0  0  0  0  0
    5.1770    0.0770    3.2140 H   0  0  0  0  0
    2.8640    0.8590    2.9010 H   0  0  0  0  0
    0.0410   -2.2300    0.4160 H   0  0  0  0  0
   -1.4610   -4.1630    0.2310 H   0  0  0  0  0
   -4.8060   -1.5550   -0.2680 H   0  0  0  0  0
   -5.1130    0.2800   -1.2170 H   0  0  0  0  0
   -5.3530    0.2980    0.5470 H   0  0  0  0  0
   -6.6950    3.5240   -0.5660 H   0  0  0  0  0
  1 26  1  0  0  0
  2  1  1  0  0  0
  2 27  1  0  0  0
  2 28  1  0  0  0
  3  2  1  0  0  0
  4  3  2  0  0  0
  4 29  1  0  0  0
  5  4  1  0  0  0
  6  5  1  0  0  0
  7  6  2  0  0  0
  8  6  1  0  0  0
  9  5  2  0  0  0
  9 10  1  0  0  0
  9 30  1  0  0  0
 10 11  2  0  0  0
 10 31  1  0  0  0
 11  3  1  0  0  0
 11 32  1  0  0  0
 12  1  1  0  0  0
 12 14  1  0  0  0
 13 12  2  0  0  0
 14 20  1  0  0  0
 15 14  2  0  0  0
 15 16  1  0  0  0
 15 33  1  0  0  0
 16 17  2  0  0  0
 16 34  1  0  0  0
 17 19  1  0  0  0
 17 18  1  0  0  0
 19 35  1  0  0  0
 20 21  1  0  0  0
 20 19  2  0  0  0
 21 22  1  0  0  0
 22 36  1  0  0  0
 22 37  1  0  0  0
 23 22  1  0  0  0
 23 25  1  0  0  0
 24 23  2  0  0  0
 25 38  1  0  0  0
M  CHG  1   6   1
M  CHG  1   8  -1
M  END
$$$$
