30U
  CCTOOLS-1004241126

 38 40  0  0  0  0  0  0  0  0999 V2000
   -4.0230   -2.7960    0.0030 C   0  0  0  0  0
   -5.0250   -1.8690    0.0020 C   0  0  0  0  0
   -4.7130   -0.5040    0.0010 C   0  0  0  0  0
   -3.3550   -0.1010   -0.0000 C   0  0  0  0  0
   -2.3420   -1.0730    0.0010 C   0  0  0  0  0
   -2.6880   -2.4090    0.0020 C   0  0  0  0  0
   -1.0360   -0.7030    0.0010 O   0  0  0  0  0
   -0.0650   -1.7510    0.0020 C   0  0  0  0  0
    1.3190   -1.1530    0.0010 C   0  0  0  0  0
    1.9530   -0.8780    1.1980 C   0  0  0  0  0
    3.2220   -0.3300    1.1980 C   0  0  0  0  0
    3.8570   -0.0560    0.0000 C   0  0  0  0  0
    3.2220   -0.3320   -1.1970 C   0  0  0  0  0
    1.9560   -0.8860   -1.1960 C   0  0  0  0  0
    5.4740    0.6440   -0.0000 S   0  0  0  0  0
    5.6260    1.3010   -1.2510 O   0  0  0  0  0
    5.6250    1.3040    1.2490 O   0  0  0  0  0
   -3.0650    1.2840   -0.0020 C   0  0  0  0  0
   -4.0780    2.1390   -0.0040 N   0  0  0  0  0
   -5.3400    1.7190   -0.0030 C   0  0  0  0  0
   -5.6660    0.4400   -0.0010 N   0  0  0  0  0
   -6.3520    2.6610   -0.0040 N   0  0  0  0  0
   -1.7620    1.7330   -0.0030 N   0  0  0  0  0
   -4.2720   -3.8460    0.0090 H   0  0  0  0  0
   -6.0570   -2.1880    0.0030 H   0  0  0  0  0
   -1.9140   -3.1620    0.0040 H   0  0  0  0  0
   -0.1940   -2.3660    0.8920 H   0  0  0  0  0
   -0.1940   -2.3670   -0.8880 H   0  0  0  0  0
    1.4580   -1.0910    2.1340 H   0  0  0  0  0
    3.7180   -0.1140    2.1330 H   0  0  0  0  0
    3.7180   -0.1180   -2.1320 H   0  0  0  0  0
    1.4600   -1.1010   -2.1310 H   0  0  0  0  0
   -6.1350    3.6060   -0.0050 H   0  0  0  0  0
   -7.2800    2.3760   -0.0030 H   0  0  0  0  0
   -1.0490    1.1550   -0.3170 H   0  0  0  0  0
   -1.5570    2.6270    0.3120 H   0  0  0  0  0
    6.4650   -0.5110    0.0010 O   0  0  0  0  0
    7.3910   -0.2340    0.0010 H   0  0  0  0  0
  1  2  2  0  0  0
  1  6  1  0  0  0
  1 24  1  0  0  0
  2  3  1  0  0  0
  2 25  1  0  0  0
  3 21  2  0  0  0
  3  4  1  0  0  0
  4 18  2  0  0  0
  5  4  1  0  0  0
  5  7  1  0  0  0
  6  5  2  0  0  0
  6 26  1  0  0  0
  7  8  1  0  0  0
  8 27  1  0  0  0
  8 28  1  0  0  0
  9 10  1  0  0  0
  9  8  1  0  0  0
 10 29  1  0  0  0
 11 10  2  0  0  0
 11 30  1  0  0  0
 12 11  1  0  0  0
 13 12  2  0  0  0
 13 14  1  0  0  0
 13 31  1  0  0  0
 14  9  2  0  0  0
 14 32  1  0  0  0
 15 16  2  0  0  0
 15 12  1  0  0  0
 15 37  1  0  0  0
 17 15  2  0  0  0
 18 19  1  0  0  0
 18 23  1  0  0  0
 20 22  1  0  0  0
 20 19  2  0  0  0
 21 20  1  0  0  0
 22 33  1  0  0  0
 22 34  1  0  0  0
 23 35  1  0  0  0
 23 36  1  0  0  0
 37 38  1  0  0  0
M  END
$$$$
