32H
  CCTOOLS-0919241041

 27 29  0  0  0  0  0  0  0  0999 V2000
    2.3550    0.9840   -1.0790 C   0  0  0  0  0
   -3.3430    4.8350    0.0890 N   0  0  0  0  0
   -0.8280   -0.7060   -0.0120 C   0  0  0  0  0
    0.5680   -0.2090   -0.0070 C   0  0  0  0  0
   -2.0160    1.6090    0.0300 C   0  0  0  0  0
   -1.1320   -2.0010   -0.0280 C   0  0  0  0  0
   -1.9860    0.1870    0.0060 C   0  0  0  0  0
    1.4010   -0.4730    1.0800 C   0  0  0  0  0
    2.7010   -0.0090    1.0790 C   0  0  0  0  0
    3.1780    0.7180    0.0020 C   0  0  0  0  0
    1.0540    0.5240   -1.0890 C   0  0  0  0  0
   -3.2460    2.2690    0.0440 C   0  0  0  0  0
   -4.4390    1.5080    0.0340 C   0  0  0  0  0
   -5.5200    2.0720    0.0470 O   0  0  0  0  0
   -4.3840    0.1680    0.0110 N   0  0  0  0  0
   -3.1820   -0.5090   -0.0030 C   0  0  0  0  0
   -2.8680   -2.2420   -0.0220 S   0  0  0  0  0
    0.1410   -3.3990   -0.0540 BR  0  0  0  0  0
   -3.3000    3.7000    0.0690 C   0  0  0  0  0
   -0.8630    2.3150    0.0390 O   0  0  0  0  0
    4.9590    1.3520    0.0090 BR  0  0  0  0  0
    2.7310    1.5560   -1.9150 H   0  0  0  0  0
    1.0300   -1.0400    1.9210 H   0  0  0  0  0
    3.3460   -0.2130    1.9200 H   0  0  0  0  0
    0.4140    0.7320   -1.9330 H   0  0  0  0  0
   -5.2110   -0.3390    0.0050 H   0  0  0  0  0
   -0.9880    3.2730    0.0560 H   0  0  0  0  0
  1 11  2  0  0  0
  1 10  1  0  0  0
  1 22  1  0  0  0
  3  7  1  0  0  0
  3  4  1  0  0  0
  4  8  2  0  0  0
  5 12  2  0  0  0
  5 20  1  0  0  0
  6  3  2  0  0  0
  7  5  1  0  0  0
  8 23  1  0  0  0
  9  8  1  0  0  0
  9 24  1  0  0  0
 10  9  2  0  0  0
 11  4  1  0  0  0
 11 25  1  0  0  0
 12 19  1  0  0  0
 13 14  2  0  0  0
 13 12  1  0  0  0
 15 16  1  0  0  0
 15 13  1  0  0  0
 15 26  1  0  0  0
 16  7  2  0  0  0
 17  6  1  0  0  0
 17 16  1  0  0  0
 18  6  1  0  0  0
 19  2  3  0  0  0
 20 27  1  0  0  0
 21 10  1  0  0  0
M  END
$$$$
