32J
  CCTOOLS-0919241041

 38 41  0  0  0  0  0  0  0  0999 V2000
    3.3150    2.0720    0.1040 C   0  0  0  0  0
    3.1210    4.6290    0.2260 N   0  0  0  0  0
    1.6980   -2.4080   -0.0990 C   0  0  0  0  0
    1.2480   -1.1550   -0.0370 C   0  0  0  0  0
   -0.9830   -1.2120    1.0700 C   0  0  0  0  0
   -0.7650   -0.1140   -1.0730 C   0  0  0  0  0
    3.2070    3.4980    0.1720 C   0  0  0  0  0
   -0.1940   -0.8210   -0.0130 C   0  0  0  0  0
   -6.1210    1.7310   -0.1820 C   0  0  0  0  0
   -6.6260   -0.5560    0.3400 C   0  0  0  0  0
   -4.7690    1.4320   -0.2050 C   0  0  0  0  0
    2.2990   -0.1390    0.0050 C   0  0  0  0  0
    3.5650   -0.6940   -0.0280 C   0  0  0  0  0
    4.6830    0.1140    0.0160 N   0  0  0  0  0
    4.5860    1.4510    0.0740 C   0  0  0  0  0
    2.1670    1.2760    0.0730 C   0  0  0  0  0
    3.4500   -2.4490   -0.1100 S   0  0  0  0  0
   -2.3260   -0.9060    1.0890 C   0  0  0  0  0
   -2.8970   -0.2050    0.0270 C   0  0  0  0  0
   -2.1080    0.1870   -1.0550 C   0  0  0  0  0
   -4.3420    0.1240    0.0480 C   0  0  0  0  0
   -5.2820   -0.8680    0.3210 C   0  0  0  0  0
   -7.0450    0.7400    0.0940 C   0  0  0  0  0
   -3.8600    2.4060   -0.4720 O   0  0  0  0  0
    0.9420    1.8460    0.1060 O   0  0  0  0  0
    5.5960    2.1330    0.1010 O   0  0  0  0  0
    0.6830   -3.8140   -0.1590 CL  0  0  0  0  0
   -0.5420   -1.7590    1.8900 H   0  0  0  0  0
   -0.1540    0.1890   -1.9110 H   0  0  0  0  0
   -6.4550    2.7390   -0.3770 H   0  0  0  0  0
   -7.3540   -1.3260    0.5510 H   0  0  0  0  0
    5.5620   -0.2960   -0.0040 H   0  0  0  0  0
   -2.9360   -1.2080    1.9270 H   0  0  0  0  0
   -2.5510    0.7300   -1.8770 H   0  0  0  0  0
   -4.9590   -1.8800    0.5130 H   0  0  0  0  0
   -8.0980    0.9770    0.1100 H   0  0  0  0  0
   -3.5420    2.8730    0.3130 H   0  0  0  0  0
    0.9580    2.8120    0.1520 H   0  0  0  0  0
  1 16  2  0  0  0
  1  7  1  0  0  0
  3  4  2  0  0  0
  4  8  1  0  0  0
  5  8  1  0  0  0
  5 28  1  0  0  0
  6 29  1  0  0  0
  7  2  3  0  0  0
  8  6  2  0  0  0
  9 11  1  0  0  0
  9 30  1  0  0  0
 10 22  2  0  0  0
 10 23  1  0  0  0
 10 31  1  0  0  0
 11 24  1  0  0  0
 12  4  1  0  0  0
 12 16  1  0  0  0
 13 12  2  0  0  0
 14 15  1  0  0  0
 14 13  1  0  0  0
 14 32  1  0  0  0
 15  1  1  0  0  0
 16 25  1  0  0  0
 17 13  1  0  0  0
 17  3  1  0  0  0
 18  5  2  0  0  0
 18 19  1  0  0  0
 18 33  1  0  0  0
 19 20  2  0  0  0
 20  6  1  0  0  0
 20 34  1  0  0  0
 21 19  1  0  0  0
 21 11  2  0  0  0
 22 21  1  0  0  0
 22 35  1  0  0  0
 23  9  2  0  0  0
 23 36  1  0  0  0
 24 37  1  0  0  0
 25 38  1  0  0  0
 26 15  2  0  0  0
 27  3  1  0  0  0
M  END
$$$$
