338
  CCTOOLS-0919241041

 32 35  0  0  0  0  0  0  0  0999 V2000
    4.9430    0.1010   -0.2810 C   0  0  0  0  0
    3.9330   -0.7360   -0.7240 C   0  0  0  0  0
    2.6320   -0.5290   -0.2950 C   0  0  0  0  0
    2.3460    0.5340    0.5780 C   0  0  0  0  0
    3.3780    1.3710    1.0110 C   0  0  0  0  0
    4.6570    1.1530    0.5840 C   0  0  0  0  0
    1.4570   -1.1530   -0.5350 O   0  0  0  0  0
    0.4930   -0.5110    0.1540 C   0  0  0  0  0
    1.0100    0.4930    0.8180 N   0  0  0  0  0
   -0.9330   -0.8830    0.1590 C   0  0  0  0  0
   -1.9330    0.1060   -0.0220 C   0  0  0  0  0
   -3.2950   -0.2790   -0.0180 C   0  0  0  0  0
   -3.6330   -1.6280    0.1750 C   0  0  0  0  0
   -2.6550   -2.5600    0.3520 C   0  0  0  0  0
   -1.3130   -2.2040    0.3460 C   0  0  0  0  0
   -1.5950    1.4510   -0.2220 C   0  0  0  0  0
   -2.5760    2.3810   -0.3980 C   0  0  0  0  0
   -3.9190    2.0160   -0.3910 C   0  0  0  0  0
   -4.2900    0.7040   -0.2040 C   0  0  0  0  0
    6.2210   -0.1040   -0.6960 O   0  0  0  0  0
   -5.6030    0.3580   -0.1980 O   0  0  0  0  0
    4.1580   -1.5480   -1.4000 H   0  0  0  0  0
    3.1640    2.1900    1.6820 H   0  0  0  0  0
    5.4520    1.8020    0.9200 H   0  0  0  0  0
   -4.6710   -1.9270    0.1840 H   0  0  0  0  0
   -2.9280   -3.5950    0.4990 H   0  0  0  0  0
   -0.5570   -2.9620    0.4880 H   0  0  0  0  0
   -0.5570    1.7520   -0.2310 H   0  0  0  0  0
   -2.3070    3.4160   -0.5470 H   0  0  0  0  0
   -4.6780    2.7710   -0.5330 H   0  0  0  0  0
    6.6310   -0.7020   -0.0560 H   0  0  0  0  0
   -5.9060    0.4270    0.7180 H   0  0  0  0  0
  1  2  2  0  0  0
  1  6  1  0  0  0
  1 20  1  0  0  0
  2  3  1  0  0  0
  2 22  1  0  0  0
  3  4  2  0  0  0
  3  7  1  0  0  0
  4  5  1  0  0  0
  4  9  1  0  0  0
  5  6  2  0  0  0
  5 23  1  0  0  0
  6 24  1  0  0  0
  7  8  1  0  0  0
  8  9  2  0  0  0
  8 10  1  0  0  0
 10 11  2  0  0  0
 10 15  1  0  0  0
 11 12  1  0  0  0
 11 16  1  0  0  0
 12 13  2  0  0  0
 12 19  1  0  0  0
 13 14  1  0  0  0
 13 25  1  0  0  0
 14 15  2  0  0  0
 14 26  1  0  0  0
 15 27  1  0  0  0
 16 17  2  0  0  0
 16 28  1  0  0  0
 17 18  1  0  0  0
 17 29  1  0  0  0
 18 19  2  0  0  0
 18 30  1  0  0  0
 19 21  1  0  0  0
 20 31  1  0  0  0
 21 32  1  0  0  0
M  END
$$$$
