369
  CCTOOLS-0919241042

 45 48  0  0  0  0  0  0  0  0999 V2000
   -0.5650   -0.3850   -0.5100 C   0  0  0  0  0
    0.9760    2.7520   -1.3940 C   0  0  0  0  0
    1.2980    3.9490   -0.7860 C   0  0  0  0  0
    0.3830    3.1440    1.2850 C   0  0  0  0  0
    2.3710   -0.1760    0.6130 C   0  0  0  0  0
    4.4410   -1.1770   -0.0550 C   0  0  0  0  0
    3.7560   -2.2700   -0.5680 C   0  0  0  0  0
    2.3740   -2.3190   -0.4920 C   0  0  0  0  0
    0.4200   -3.3000    1.7150 C   0  0  0  0  0
   -0.4260   -2.3000    0.9690 C   0  0  0  0  0
   -1.7800   -2.3650    1.0650 C   0  0  0  0  0
   -2.5810   -1.4410    0.3700 C   0  0  0  0  0
   -3.9820   -1.4910    0.4550 C   0  0  0  0  0
   -4.7340   -0.5810   -0.2320 C   0  0  0  0  0
   -6.0900   -0.6310   -0.1480 O   0  0  0  0  0
   -4.1280    0.4020   -1.0210 C   0  0  0  0  0
   -2.7730    0.4900   -1.1070 C   0  0  0  0  0
   -1.9690   -0.4370   -0.4220 C   0  0  0  0  0
    0.0400    0.5690   -1.2620 O   0  0  0  0  0
    0.3570    1.7480   -0.6640 C   0  0  0  0  0
    1.0020    4.1480    0.5550 C   0  0  0  0  0
    1.3190    5.3270    1.1530 O   0  0  0  0  0
    0.0610    1.9470    0.6770 C   0  0  0  0  0
    0.1960   -1.3160    0.1860 C   0  0  0  0  0
    1.6750   -1.2700    0.1010 C   0  0  0  0  0
    3.7490   -0.1350    0.5330 C   0  0  0  0  0
    4.4410   -3.2920   -1.1450 O   0  0  0  0  0
    1.2020    2.5990   -2.4390 H   0  0  0  0  0
    1.7800    4.7310   -1.3540 H   0  0  0  0  0
    0.1530    3.2990    2.3290 H   0  0  0  0  0
    1.8320    0.6420    1.0690 H   0  0  0  0  0
    5.5190   -1.1400   -0.1160 H   0  0  0  0  0
    1.8400   -3.1690   -0.8910 H   0  0  0  0  0
    0.5960   -4.1700    1.0830 H   0  0  0  0  0
    1.3740   -2.8440    1.9790 H   0  0  0  0  0
   -0.0980   -3.6100    2.6220 H   0  0  0  0  0
   -2.2410   -3.1290    1.6730 H   0  0  0  0  0
   -4.4620   -2.2460    1.0610 H   0  0  0  0  0
   -6.4590   -0.1020    0.5720 H   0  0  0  0  0
   -4.7430    1.1110   -1.5550 H   0  0  0  0  0
   -2.3180    1.2540   -1.7190 H   0  0  0  0  0
    0.6210    5.9940    1.1040 H   0  0  0  0  0
   -0.4210    1.1650    1.2460 H   0  0  0  0  0
    4.2860    0.7130    0.9290 H   0  0  0  0  0
    4.6980   -3.9910   -0.5290 H   0  0  0  0  0
  1 18  2  0  0  0
  1 19  1  0  0  0
  1 24  1  0  0  0
  2  3  2  0  0  0
  2 20  1  0  0  0
  2 28  1  0  0  0
  3 21  1  0  0  0
  3 29  1  0  0  0
  4 21  2  0  0  0
  4 23  1  0  0  0
  4 30  1  0  0  0
  5 25  2  0  0  0
  5 26  1  0  0  0
  5 31  1  0  0  0
  6  7  1  0  0  0
  6 26  2  0  0  0
  6 32  1  0  0  0
  7  8  2  0  0  0
  7 27  1  0  0  0
  8 25  1  0  0  0
  8 33  1  0  0  0
  9 10  1  0  0  0
  9 34  1  0  0  0
  9 35  1  0  0  0
  9 36  1  0  0  0
 10 11  1  0  0  0
 10 24  2  0  0  0
 11 12  2  0  0  0
 11 37  1  0  0  0
 12 13  1  0  0  0
 12 18  1  0  0  0
 13 14  2  0  0  0
 13 38  1  0  0  0
 14 15  1  0  0  0
 14 16  1  0  0  0
 15 39  1  0  0  0
 16 17  2  0  0  0
 16 40  1  0  0  0
 17 18  1  0  0  0
 17 41  1  0  0  0
 19 20  1  0  0  0
 20 23  2  0  0  0
 21 22  1  0  0  0
 22 42  1  0  0  0
 23 43  1  0  0  0
 24 25  1  0  0  0
 26 44  1  0  0  0
 27 45  1  0  0  0
M  END
$$$$
