36Y
  CCTOOLS-0919241042

 19 20  0  0  0  0  0  0  0  0999 V2000
   -4.8590    0.7140   -0.0040 C   0  0  0  0  0
   -3.6200   -1.0930   -0.0010 C   0  0  0  0  0
   -2.8170    0.0040    0.0010 C   0  0  0  0  0
   -1.3340    0.0030    0.0010 C   0  0  0  0  0
   -0.6340    1.2080    0.0020 C   0  0  0  0  0
    0.7460    1.2010    0.0020 C   0  0  0  0  0
    1.4350    0.0010    0.0000 C   0  0  0  0  0
    0.7450   -1.1990   -0.0010 C   0  0  0  0  0
    3.3260   -0.0010   -0.0010 BR  0  0  0  0  0
   -0.6350   -1.2030    0.0050 C   0  0  0  0  0
   -3.6120    1.0930    0.0010 N   0  0  0  0  0
   -4.9080   -0.6370   -0.0010 N   0  0  0  0  0
   -5.7150    1.3720   -0.0050 H   0  0  0  0  0
   -3.3010   -2.1250    0.0010 H   0  0  0  0  0
   -1.1700    2.1450    0.0030 H   0  0  0  0  0
    1.2900    2.1350    0.0030 H   0  0  0  0  0
    1.2870   -2.1330   -0.0030 H   0  0  0  0  0
   -1.1730   -2.1400    0.0040 H   0  0  0  0  0
   -5.7100   -1.1820   -0.0020 H   0  0  0  0  0
  1 13  1  0  0  0
  2 12  1  0  0  0
  2 14  1  0  0  0
  3  2  2  0  0  0
  3 11  1  0  0  0
  4  3  1  0  0  0
  5  4  2  0  0  0
  5 15  1  0  0  0
  6  5  1  0  0  0
  6 16  1  0  0  0
  7  6  2  0  0  0
  7  8  1  0  0  0
  8 10  2  0  0  0
  8 17  1  0  0  0
  9  7  1  0  0  0
 10  4  1  0  0  0
 10 18  1  0  0  0
 11  1  2  0  0  0
 12  1  1  0  0  0
 12 19  1  0  0  0
M  END
$$$$
