372
  CCTOOLS-0919241042

 31 32  0  0  1  0  0  0  0  0999 V2000
   -3.8560   -3.1060    0.2130 N   0  0  0  0  0
   -2.9330   -2.4940    0.4620 C   0  0  0  0  0
   -1.7350   -1.7000    0.7830 C   0  0  0  0  0
   -1.4700   -0.6990   -0.3430 C   0  0  0  0  0
   -2.5520    0.3590   -0.3790 C   0  0  0  0  0
   -3.7350    0.1720   -0.5700 O   0  0  0  0  0
   -1.9560    1.5420   -0.1570 N   0  0  0  0  0
   -2.6700    2.8210   -0.1120 C   0  0  0  0  0
   -0.2010    0.0770   -0.0730 C   0  0  0  0  0
    1.1140   -0.3030    0.0720 C   0  0  0  0  0
   -0.5770    1.4140    0.0270 C   0  0  0  0  0
    0.4010    2.3750    0.2790 C   0  0  0  0  0
    1.7190    2.0000    0.4270 C   0  0  0  0  0
    2.0880    0.6570    0.3210 C   0  0  0  0  0
    3.4280    0.2810    0.4730 N   0  0  0  0  0
    3.9190   -0.7630   -0.2240 C   0  0  0  0  0
    3.2280   -1.3160   -1.0530 O   0  0  0  0  0
    5.3260   -1.2420    0.0260 C   0  0  0  0  0
   -1.8960   -1.1620    1.7170 H   0  0  0  0  0
   -0.8770   -2.3640    0.8890 H   0  0  0  0  0
   -1.4060   -1.2130   -1.3020 H   0  0  0  0  0
   -2.7010    3.2550   -1.1110 H   0  0  0  0  0
   -3.6870    2.6560    0.2440 H   0  0  0  0  0
   -2.1540    3.5020    0.5640 H   0  0  0  0  0
    1.3880   -1.3440   -0.0080 H   0  0  0  0  0
    0.1240    3.4150    0.3620 H   0  0  0  0  0
    2.4720    2.7500    0.6220 H   0  0  0  0  0
    4.0040    0.7720    1.0800 H   0  0  0  0  0
    5.7870   -0.6270    0.7990 H   0  0  0  0  0
    5.3020   -2.2810    0.3540 H   0  0  0  0  0
    5.9050   -1.1640   -0.8940 H   0  0  0  0  0
  2  1  3  0  0  0
  3  2  1  0  0  0
  3 19  1  0  0  0
  3 20  1  0  0  0
  4  3  1  0  0  0
  4 21  1  0  0  0
  5  6  2  0  0  0
  5  4  1  0  0  0
  7 11  1  0  0  0
  7  5  1  0  0  0
  8  7  1  0  0  0
  8 22  1  0  0  0
  8 23  1  0  0  0
  8 24  1  0  0  0
  9 10  1  0  0  0
  9  4  1  0  0  0
 10 25  1  0  0  0
 11  9  2  0  0  0
 12 13  2  0  0  0
 12 11  1  0  0  0
 12 26  1  0  0  0
 13 14  1  0  0  0
 13 27  1  0  0  0
 14 15  1  0  0  0
 14 10  2  0  0  0
 15 16  1  0  0  0
 15 28  1  0  0  0
 16 18  1  0  0  0
 16 17  2  0  0  0
 18 29  1  0  0  0
 18 30  1  0  0  0
 18 31  1  0  0  0
M  END
$$$$
