37V
  CCTOOLS-0919241042

 38 40  0  0  0  0  0  0  0  0999 V2000
    0.4810    0.2230    0.0470 N   0  0  0  0  0
    1.3650    1.3910    0.0330 C   0  0  0  0  0
    2.8010    0.9350    0.0730 C   0  0  0  0  0
    3.6880    0.6810    1.5080 S   0  0  0  0  0
    5.1070    0.2100    0.5780 C   0  0  0  0  0
    6.3830   -0.1880    0.9700 C   0  0  0  0  0
    7.3260   -0.5080    0.0190 C   0  0  0  0  0
    7.0070   -0.4330   -1.3290 C   0  0  0  0  0
    5.7650   -0.0450   -1.7310 C   0  0  0  0  0
    4.7790    0.2870   -0.7800 C   0  0  0  0  0
    3.5050    0.6840   -0.9650 N   0  0  0  0  0
   -0.8560    0.3890    0.0110 C   0  0  0  0  0
   -1.3290    1.5090   -0.0270 O   0  0  0  0  0
   -1.7450   -0.7870    0.0180 C   0  0  0  0  0
   -1.2060   -2.0750    0.0680 C   0  0  0  0  0
   -2.0410   -3.1700    0.0750 C   0  0  0  0  0
   -3.4180   -3.0000    0.0330 C   0  0  0  0  0
   -4.2290   -4.0800    0.0400 F   0  0  0  0  0
   -3.9640   -1.7290   -0.0160 C   0  0  0  0  0
   -3.1370   -0.6180   -0.0190 C   0  0  0  0  0
   -3.6710    0.6290   -0.0620 O   0  0  0  0  0
   -5.0960    0.7230   -0.0980 C   0  0  0  0  0
   -5.5030    2.1730   -0.1440 C   0  0  0  0  0
   -6.8030    2.5050   -0.1830 O   0  0  0  0  0
   -4.6580    3.0380   -0.1450 O   0  0  0  0  0
    0.8580   -0.6700    0.0770 H   0  0  0  0  0
    1.1920    1.9670   -0.8760 H   0  0  0  0  0
    1.1580    2.0130    0.9040 H   0  0  0  0  0
    6.6320   -0.2460    2.0190 H   0  0  0  0  0
    8.3150   -0.8170    0.3230 H   0  0  0  0  0
    7.7530   -0.6850   -2.0690 H   0  0  0  0  0
    5.5340    0.0080   -2.7850 H   0  0  0  0  0
   -0.1350   -2.2120    0.1000 H   0  0  0  0  0
   -1.6230   -4.1650    0.1130 H   0  0  0  0  0
   -5.0370   -1.6040   -0.0490 H   0  0  0  0  0
   -5.4720    0.2130   -0.9850 H   0  0  0  0  0
   -5.5140    0.2560    0.7940 H   0  0  0  0  0
   -7.0150    3.4480   -0.2110 H   0  0  0  0  0
  1 26  1  0  0  0
  2  1  1  0  0  0
  2 27  1  0  0  0
  2 28  1  0  0  0
  3  2  1  0  0  0
  4  3  1  0  0  0
  5  4  1  0  0  0
  6  5  2  0  0  0
  6 29  1  0  0  0
  7  6  1  0  0  0
  7 30  1  0  0  0
  8  7  2  0  0  0
  8  9  1  0  0  0
  8 31  1  0  0  0
  9 10  2  0  0  0
  9 32  1  0  0  0
 10  5  1  0  0  0
 10 11  1  0  0  0
 11  3  2  0  0  0
 12  1  1  0  0  0
 12 14  1  0  0  0
 13 12  2  0  0  0
 14 20  1  0  0  0
 15 14  2  0  0  0
 15 16  1  0  0  0
 15 33  1  0  0  0
 16 17  2  0  0  0
 16 34  1  0  0  0
 17 19  1  0  0  0
 17 18  1  0  0  0
 19 35  1  0  0  0
 20 21  1  0  0  0
 20 19  2  0  0  0
 21 22  1  0  0  0
 22 36  1  0  0  0
 22 37  1  0  0  0
 23 22  1  0  0  0
 23 24  1  0  0  0
 24 38  1  0  0  0
 25 23  2  0  0  0
M  END
$$$$
