38D
  CCTOOLS-0919241042

 31 32  0  0  0  0  0  0  0  0999 V2000
   -0.3950   -0.3110   -0.0050 N   0  0  0  0  0
   -1.2940   -1.2480   -0.0030 C   0  0  0  0  0
   -3.6950   -1.9020    0.0010 C   0  0  0  0  0
   -5.4160   -0.2350    0.0050 C   0  0  0  0  0
   -3.1190    0.4450   -0.0040 C   0  0  0  0  0
    4.3000    0.9830   -0.0220 C   0  0  0  0  0
    5.6400    0.6480   -0.0220 C   0  0  0  0  0
    6.5850    1.6260   -0.0300 O   0  0  0  0  0
    6.0230   -0.6920   -0.0150 C   0  0  0  0  0
    5.0620   -1.6930   -0.0070 C   0  0  0  0  0
    3.7230   -1.3650   -0.0060 C   0  0  0  0  0
    7.3410   -1.0200   -0.0160 O   0  0  0  0  0
    3.3310   -0.0240   -0.0080 C   0  0  0  0  0
    1.8980    0.3270   -0.0070 C   0  0  0  0  0
    1.5590    1.4950   -0.0090 O   0  0  0  0  0
    0.9650   -0.6450   -0.0050 N   0  0  0  0  0
   -2.7250   -0.8960   -0.0020 C   0  0  0  0  0
   -5.0320   -1.5660    0.0020 C   0  0  0  0  0
   -7.1020    0.1780    0.0070 CL  0  0  0  0  0
   -4.4610    0.7670    0.0080 C   0  0  0  0  0
   -1.9220    1.7030   -0.0000 CL  0  0  0  0  0
   -0.9920   -2.2850   -0.0010 H   0  0  0  0  0
   -3.3980   -2.9400   -0.0030 H   0  0  0  0  0
    4.0020    2.0210   -0.0270 H   0  0  0  0  0
    6.8600    1.9140    0.8520 H   0  0  0  0  0
    5.3630   -2.7300   -0.0010 H   0  0  0  0  0
    2.9760   -2.1460   -0.0000 H   0  0  0  0  0
    7.7250   -1.1090    0.8670 H   0  0  0  0  0
    1.2360   -1.5770   -0.0040 H   0  0  0  0  0
   -5.7830   -2.3430   -0.0010 H   0  0  0  0  0
   -4.7670    1.8030    0.0070 H   0  0  0  0  0
  1  2  2  0  0  0
  2 17  1  0  0  0
  2 22  1  0  0  0
  3 18  2  0  0  0
  3 23  1  0  0  0
  4 19  1  0  0  0
  5 20  1  0  0  0
  6 24  1  0  0  0
  7  8  1  0  0  0
  7  6  2  0  0  0
  8 25  1  0  0  0
  9  7  1  0  0  0
 10  9  2  0  0  0
 10 11  1  0  0  0
 10 26  1  0  0  0
 11 13  2  0  0  0
 11 27  1  0  0  0
 12  9  1  0  0  0
 12 28  1  0  0  0
 13  6  1  0  0  0
 13 14  1  0  0  0
 14 15  2  0  0  0
 14 16  1  0  0  0
 16  1  1  0  0  0
 16 29  1  0  0  0
 17  5  2  0  0  0
 17  3  1  0  0  0
 18  4  1  0  0  0
 18 30  1  0  0  0
 20  4  2  0  0  0
 20 31  1  0  0  0
 21  5  1  0  0  0
M  END
$$$$
