397
  CCTOOLS-0919241042

 27 29  0  0  0  0  0  0  0  0999 V2000
    1.0260    0.0130   -4.1920 C   0  0  0  0  0
    1.6250    0.0040   -2.9500 C   0  0  0  0  0
    0.8440    0.0030   -1.8010 C   0  0  0  0  0
   -0.5560    0.0100   -1.9200 C   0  0  0  0  0
   -1.1540    0.0180   -3.1810 C   0  0  0  0  0
   -0.3590    0.0200   -4.3110 C   0  0  0  0  0
    1.1400   -0.0030   -0.4840 O   0  0  0  0  0
    0.0170   -0.0010    0.2590 C   0  0  0  0  0
   -1.0690    0.0010   -0.5480 C   0  0  0  0  0
   -0.0210   -0.0060    1.7370 C   0  0  0  0  0
    1.1670   -0.0140    2.4690 C   0  0  0  0  0
    1.1250   -0.0190    3.8460 C   0  0  0  0  0
   -0.0960   -0.0160    4.5060 C   0  0  0  0  0
   -1.2800   -0.0130    3.7820 C   0  0  0  0  0
   -1.2480   -0.0040    2.4040 C   0  0  0  0  0
   -0.9340    0.0280   -5.5440 O   0  0  0  0  0
   -0.1320   -0.0210    5.8650 O   0  0  0  0  0
    1.6400    0.0150   -5.0800 H   0  0  0  0  0
    2.7020   -0.0000   -2.8700 H   0  0  0  0  0
   -2.2300    0.0240   -3.2720 H   0  0  0  0  0
   -2.1050   -0.0010   -0.2420 H   0  0  0  0  0
    2.1170   -0.0160    1.9560 H   0  0  0  0  0
    2.0450   -0.0250    4.4130 H   0  0  0  0  0
   -2.2290   -0.0110    4.2990 H   0  0  0  0  0
   -2.1700    0.0020    1.8410 H   0  0  0  0  0
   -1.0560   -0.8950   -5.8010 H   0  0  0  0  0
   -0.1350    0.9030    6.1470 H   0  0  0  0  0
  1  2  2  0  0  0
  1  6  1  0  0  0
  1 18  1  0  0  0
  2  3  1  0  0  0
  2 19  1  0  0  0
  3  4  2  0  0  0
  3  7  1  0  0  0
  4  5  1  0  0  0
  4  9  1  0  0  0
  5  6  2  0  0  0
  5 20  1  0  0  0
  6 16  1  0  0  0
  7  8  1  0  0  0
  8  9  2  0  0  0
  8 10  1  0  0  0
  9 21  1  0  0  0
 10 11  2  0  0  0
 10 15  1  0  0  0
 11 12  1  0  0  0
 11 22  1  0  0  0
 12 13  2  0  0  0
 12 23  1  0  0  0
 13 14  1  0  0  0
 13 17  1  0  0  0
 14 15  2  0  0  0
 14 24  1  0  0  0
 15 25  1  0  0  0
 16 26  1  0  0  0
 17 27  1  0  0  0
M  END
$$$$
