398
  CCTOOLS-0919241042

 94 99  0  0  0  0  0  0  0  0999 V2000
   -4.1090    2.2150    1.9650 O   0  0  0  0  0
   -2.9910    1.7400    1.9140 C   0  0  0  0  0
   -2.5710    0.8990    2.8790 N   0  0  0  0  0
   -1.2730    0.2230    2.7900 C   0  0  0  0  0
   -1.4280   -1.2270    3.1720 C   0  0  0  0  0
   -0.3640   -2.0820    2.9150 C   0  0  0  0  0
   -0.4430   -3.4180    3.2520 C   0  0  0  0  0
   -1.5890   -3.9080    3.8510 C   0  0  0  0  0
   -2.6470   -3.0600    4.1030 C   0  0  0  0  0
   -2.5730   -1.7160    3.7590 C   0  0  0  0  0
   -3.7780   -0.8570    4.0390 C   0  0  0  0  0
   -3.3950    0.6270    4.0690 C   0  0  0  0  0
   -2.0960    2.0810    0.7900 C   0  0  0  0  0
   -2.5640    2.0060   -0.5320 C   0  0  0  0  0
   -3.8760    1.6100   -0.7850 N   0  0  0  0  0
   -4.4420    0.5710   -0.2840 N   0  0  0  0  0
   -5.6820    0.4750   -0.7180 C   0  0  0  0  0
   -6.6540   -0.5810   -0.3690 C   0  0  0  0  0
   -7.5550   -0.3440    0.4130 O   0  0  0  0  0
   -6.5440   -1.8070   -0.9180 N   0  0  0  0  0
   -5.4050   -2.1220   -1.7840 C   0  0  0  0  0
   -4.3060   -2.7930   -0.9570 C   0  0  0  0  0
   -3.0720   -3.0150   -1.8340 C   0  0  0  0  0
   -2.0210   -3.8000   -1.0450 C   0  0  0  0  0
   -7.5630   -2.8250   -0.6500 C   0  0  0  0  0
   -8.6670   -2.7320   -1.7050 C   0  0  0  0  0
   -9.7310   -3.7950   -1.4240 C   0  0  0  0  0
  -10.8350   -3.7020   -2.4800 C   0  0  0  0  0
   -5.9090    1.5740   -1.5820 C   0  0  0  0  0
   -7.3700    1.9540   -2.4390 CL  0  0  0  0  0
   -4.7470    2.2700   -1.5950 C   0  0  0  0  0
   -4.4710    3.5370   -2.3630 C   0  0  0  0  0
   -1.7190    2.3260   -1.5860 C   0  0  0  0  0
   -0.4210    2.7180   -1.3410 C   0  0  0  0  0
    0.0550    2.7960   -0.0280 C   0  0  0  0  0
   -0.7860    2.4830    1.0380 C   0  0  0  0  0
    1.4470    3.2170    0.2280 C   0  0  0  0  0
    1.8610    3.2850    1.3700 O   0  0  0  0  0
    2.2590    3.5260   -0.8020 N   0  0  0  0  0
    3.8200    3.9970   -0.5140 S   0  0  0  0  0
    4.4150    4.2150   -1.7860 O   0  0  0  0  0
    3.7580    4.9950    0.4950 O   0  0  0  0  0
    4.6580    2.6200    0.1980 C   0  0  0  0  0
    5.2880    1.7270   -0.6130 C   0  0  0  0  0
    5.9580    0.6280   -0.0480 C   0  0  0  0  0
    6.6200   -0.3150   -0.8530 C   0  0  0  0  0
    7.2580   -1.3670   -0.2700 C   0  0  0  0  0
    8.2440   -2.7710   -1.4740 I   0  0  0  0  0
    7.2670   -1.5240    1.1150 C   0  0  0  0  0
    6.6360   -0.6310    1.9250 C   0  0  0  0  0
    5.9660    0.4680    1.3600 C   0  0  0  0  0
    5.3040    1.4110    2.1640 C   0  0  0  0  0
    4.6710    2.4660    1.5820 C   0  0  0  0  0
   -0.8980    0.2910    1.7690 H   0  0  0  0  0
   -0.5660    0.7030    3.4680 H   0  0  0  0  0
   -2.8230    0.8440    4.9710 H   0  0  0  0  0
   -4.2930    1.2430    4.0440 H   0  0  0  0  0
    0.5310   -1.6990    2.4480 H   0  0  0  0  0
    0.3870   -4.0780    3.0480 H   0  0  0  0  0
   -1.6540   -4.9510    4.1210 H   0  0  0  0  0
   -3.5410   -3.4450    4.5710 H   0  0  0  0  0
   -4.5240   -1.0210    3.2610 H   0  0  0  0  0
   -4.2010   -1.1360    5.0040 H   0  0  0  0  0
   -0.4220    2.5470    2.0520 H   0  0  0  0  0
   -2.0800    2.2680   -2.6020 H   0  0  0  0  0
   -5.7260   -2.7960   -2.5770 H   0  0  0  0  0
   -5.0170   -1.2020   -2.2240 H   0  0  0  0  0
   -7.1070   -3.8140   -0.6870 H   0  0  0  0  0
   -7.9900   -2.6580    0.3390 H   0  0  0  0  0
   -4.0430   -2.1540   -0.1150 H   0  0  0  0  0
   -4.6660   -3.7530   -0.5870 H   0  0  0  0  0
   -3.3540   -3.5780   -2.7230 H   0  0  0  0  0
   -2.6590   -2.0510   -2.1300 H   0  0  0  0  0
   -1.7390   -3.2370   -0.1560 H   0  0  0  0  0
   -2.4340   -4.7640   -0.7490 H   0  0  0  0  0
   -1.1420   -3.9580   -1.6700 H   0  0  0  0  0
   -9.1230   -1.7430   -1.6680 H   0  0  0  0  0
   -8.2390   -2.8980   -2.6940 H   0  0  0  0  0
   -9.2750   -4.7840   -1.4610 H   0  0  0  0  0
  -10.1580   -3.6290   -0.4350 H   0  0  0  0  0
  -11.2910   -2.7130   -2.4420 H   0  0  0  0  0
  -10.4070   -3.8680   -3.4680 H   0  0  0  0  0
  -11.5930   -4.4590   -2.2800 H   0  0  0  0  0
   -4.1600    3.2860   -3.3770 H   0  0  0  0  0
   -5.3760    4.1440   -2.4010 H   0  0  0  0  0
   -3.6780    4.0970   -1.8680 H   0  0  0  0  0
    0.2310    2.9660   -2.1650 H   0  0  0  0  0
    1.9290    3.4710   -1.7130 H   0  0  0  0  0
    5.2730    1.8610   -1.6840 H   0  0  0  0  0
    4.1670    3.1920    2.2030 H   0  0  0  0  0
    6.6220   -0.2070   -1.9270 H   0  0  0  0  0
    7.7810   -2.3680    1.5520 H   0  0  0  0  0
    6.6500   -0.7660    2.9970 H   0  0  0  0  0
    5.3020    1.3020    3.2390 H   0  0  0  0  0
  1  2  2  0  0  0
  2  3  1  0  0  0
  2 13  1  0  0  0
  3  4  1  0  0  0
  3 12  1  0  0  0
  4  5  1  0  0  0
  4 54  1  0  0  0
  4 55  1  0  0  0
  5  6  1  0  0  0
  5 10  2  0  0  0
  6  7  2  0  0  0
  6 58  1  0  0  0
  7  8  1  0  0  0
  7 59  1  0  0  0
  8  9  2  0  0  0
  8 60  1  0  0  0
  9 10  1  0  0  0
  9 61  1  0  0  0
 10 11  1  0  0  0
 11 12  1  0  0  0
 11 62  1  0  0  0
 11 63  1  0  0  0
 12 56  1  0  0  0
 12 57  1  0  0  0
 13 14  1  0  0  0
 13 36  2  0  0  0
 14 15  1  0  0  0
 14 33  2  0  0  0
 15 16  1  0  0  0
 15 31  1  0  0  0
 16 17  2  0  0  0
 17 18  1  0  0  0
 17 29  1  0  0  0
 18 19  2  0  0  0
 18 20  1  0  0  0
 20 21  1  0  0  0
 20 25  1  0  0  0
 21 22  1  0  0  0
 21 66  1  0  0  0
 21 67  1  0  0  0
 22 23  1  0  0  0
 22 70  1  0  0  0
 22 71  1  0  0  0
 23 24  1  0  0  0
 23 72  1  0  0  0
 23 73  1  0  0  0
 24 74  1  0  0  0
 24 75  1  0  0  0
 24 76  1  0  0  0
 25 26  1  0  0  0
 25 68  1  0  0  0
 25 69  1  0  0  0
 26 27  1  0  0  0
 26 77  1  0  0  0
 26 78  1  0  0  0
 27 28  1  0  0  0
 27 79  1  0  0  0
 27 80  1  0  0  0
 28 81  1  0  0  0
 28 82  1  0  0  0
 28 83  1  0  0  0
 29 30  1  0  0  0
 29 31  2  0  0  0
 31 32  1  0  0  0
 32 84  1  0  0  0
 32 85  1  0  0  0
 32 86  1  0  0  0
 33 34  1  0  0  0
 33 65  1  0  0  0
 34 35  2  0  0  0
 34 87  1  0  0  0
 35 36  1  0  0  0
 35 37  1  0  0  0
 36 64  1  0  0  0
 37 38  2  0  0  0
 37 39  1  0  0  0
 39 40  1  0  0  0
 39 88  1  0  0  0
 40 41  2  0  0  0
 40 42  2  0  0  0
 40 43  1  0  0  0
 43 44  1  0  0  0
 43 53  2  0  0  0
 44 45  2  0  0  0
 44 89  1  0  0  0
 45 46  1  0  0  0
 45 51  1  0  0  0
 46 47  2  0  0  0
 46 91  1  0  0  0
 47 48  1  0  0  0
 47 49  1  0  0  0
 49 50  2  0  0  0
 49 92  1  0  0  0
 50 51  1  0  0  0
 50 93  1  0  0  0
 51 52  2  0  0  0
 52 53  1  0  0  0
 52 94  1  0  0  0
 53 90  1  0  0  0
M  END
$$$$
