3A8
  CCTOOLS-0919241042

 35 38  0  0  1  0  0  0  0  0999 V2000
    1.9790    1.2940   -0.5310 C   0  0  0  0  0
    1.9540    2.5760   -1.0460 C   0  0  0  0  0
    1.1310    3.5350   -0.4740 C   0  0  0  0  0
    1.1040    4.7970   -0.9790 O   0  0  0  0  0
    0.3360    3.2050    0.6130 C   0  0  0  0  0
    0.3650    1.9220    1.1240 C   0  0  0  0  0
    1.1810    0.9660    0.5490 C   0  0  0  0  0
    1.2110   -0.4330    1.1080 C   0  0  0  0  0
    0.3910   -1.3530    0.2450 C   0  0  0  0  0
    2.5810   -0.9610    1.0780 N   0  0  0  0  0
    2.5930   -2.0580    0.2990 C   0  0  0  0  0
    3.5780   -2.7330    0.0660 O   0  0  0  0  0
    1.2510   -2.3240   -0.2300 C   0  0  0  0  0
    0.4950   -3.1510   -1.0110 N   0  0  0  0  0
   -0.7240   -2.7430   -1.0290 N   0  0  0  0  0
   -0.8640   -1.6600   -0.2910 C   0  0  0  0  0
   -2.1230   -0.9050   -0.0690 C   0  0  0  0  0
   -3.0600   -0.7930   -1.0940 C   0  0  0  0  0
   -4.2290   -0.0900   -0.8820 C   0  0  0  0  0
   -4.4700    0.5040    0.3430 C   0  0  0  0  0
   -3.5420    0.3970    1.3640 C   0  0  0  0  0
   -2.3730   -0.3100    1.1650 C   0  0  0  0  0
    2.6200    0.5470   -0.9760 H   0  0  0  0  0
    2.5740    2.8310   -1.8920 H   0  0  0  0  0
    0.4440    4.9290   -1.6730 H   0  0  0  0  0
   -0.3050    3.9500    1.0610 H   0  0  0  0  0
   -0.2540    1.6640    1.9710 H   0  0  0  0  0
    0.8300   -0.4370    2.1290 H   0  0  0  0  0
    3.3460   -0.5840    1.5400 H   0  0  0  0  0
    0.8290   -3.9300   -1.4840 H   0  0  0  0  0
   -2.8730   -1.2560   -2.0510 H   0  0  0  0  0
   -4.9570   -0.0020   -1.6760 H   0  0  0  0  0
   -5.3850    1.0550    0.5040 H   0  0  0  0  0
   -3.7350    0.8630    2.3190 H   0  0  0  0  0
   -1.6490   -0.3930    1.9620 H   0  0  0  0  0
  1 23  1  0  0  0
  2  1  2  0  0  0
  2 24  1  0  0  0
  3  2  1  0  0  0
  4  3  1  0  0  0
  4 25  1  0  0  0
  5  3  2  0  0  0
  5  6  1  0  0  0
  5 26  1  0  0  0
  6  7  2  0  0  0
  6 27  1  0  0  0
  7  1  1  0  0  0
  7  8  1  0  0  0
  8 10  1  0  0  0
  8 28  1  0  0  0
  9 13  2  0  0  0
  9  8  1  0  0  0
 10 29  1  0  0  0
 11 10  1  0  0  0
 11 12  2  0  0  0
 13 11  1  0  0  0
 14 13  1  0  0  0
 14 30  1  0  0  0
 15 14  1  0  0  0
 16 15  2  0  0  0
 16  9  1  0  0  0
 17 18  1  0  0  0
 17 16  1  0  0  0
 18 31  1  0  0  0
 19 18  2  0  0  0
 19 32  1  0  0  0
 20 19  1  0  0  0
 20 33  1  0  0  0
 21 20  2  0  0  0
 21 22  1  0  0  0
 21 34  1  0  0  0
 22 17  2  0  0  0
 22 35  1  0  0  0
M  END
$$$$
