3AW
  CCTOOLS-0919241043

 16 16  0  0  0  0  0  0  0  0999 V2000
    0.6720   -1.1450    0.0000 N   0  0  0  0  0
    1.3310   -0.0000    0.0000 C   0  0  0  0  0
    2.8380   -0.0000   -0.0000 C   0  0  0  0  0
    0.6720    1.1450    0.0000 N   0  0  0  0  0
   -0.6600   -1.1500    0.0000 C   0  0  0  0  0
   -0.6600    1.1500    0.0000 C   0  0  0  0  0
   -1.3260    0.0000    0.0000 N   0  0  0  0  0
   -1.3470    2.3460   -0.0000 N   0  0  0  0  0
   -1.3470   -2.3460   -0.0000 N   0  0  0  0  0
    3.2010    0.0000   -1.0280 H   0  0  0  0  0
    3.2010    0.8900    0.5140 H   0  0  0  0  0
    3.2010   -0.8900    0.5130 H   0  0  0  0  0
   -0.8600   -3.1850   -0.0010 H   0  0  0  0  0
   -2.3170   -2.3480   -0.0000 H   0  0  0  0  0
   -0.8600    3.1850   -0.0010 H   0  0  0  0  0
   -2.3170    2.3490   -0.0000 H   0  0  0  0  0
  1  5  2  0  0  0
  2  3  1  0  0  0
  2  1  1  0  0  0
  3 10  1  0  0  0
  3 11  1  0  0  0
  3 12  1  0  0  0
  4  2  2  0  0  0
  4  6  1  0  0  0
  5  7  1  0  0  0
  5  9  1  0  0  0
  7  6  2  0  0  0
  8  6  1  0  0  0
  8 15  1  0  0  0
  8 16  1  0  0  0
  9 13  1  0  0  0
  9 14  1  0  0  0
M  END
$$$$
