3BR
  CCTOOLS-0919241043

 11 10  0  0  0  0  0  0  0  0999 V2000
    0.0380    0.0000   -1.0600 BR  0  0  0  0  0
   -0.6590    0.0000    0.7770 C   0  0  0  0  0
    0.5070    0.0000    1.7660 C   0  0  0  0  0
   -0.0350    0.0000    3.1960 C   0  0  0  0  0
   -1.2690   -0.8900    0.9340 H   0  0  0  0  0
   -1.2690    0.8900    0.9340 H   0  0  0  0  0
    1.1170    0.8900    1.6080 H   0  0  0  0  0
    1.1170   -0.8900    1.6080 H   0  0  0  0  0
    0.7960    0.0000    3.9010 H   0  0  0  0  0
   -0.6450    0.8900    3.3530 H   0  0  0  0  0
   -0.6450   -0.8900    3.3530 H   0  0  0  0  0
  1  2  1  0  0  0
  2  3  1  0  0  0
  2  5  1  0  0  0
  2  6  1  0  0  0
  3  4  1  0  0  0
  3  7  1  0  0  0
  3  8  1  0  0  0
  4  9  1  0  0  0
  4 10  1  0  0  0
  4 11  1  0  0  0
M  END
$$$$
