3DG
  CCTOOLS-0919241043

 32 34  0  0  1  0  0  0  0  0999 V2000
    0.0710   -0.4600   -0.0070 N   0  0  0  0  0
    1.2580    0.3590   -0.2630 C   0  0  0  0  0
    1.6380    1.1640    0.9990 C   0  0  0  0  0
    3.1850    1.1570    0.9950 C   0  0  0  0  0
    3.5530    0.3530   -0.2710 C   0  0  0  0  0
    2.4020   -0.4810   -0.5270 O   0  0  0  0  0
    4.7900   -0.5110   -0.0150 C   0  0  0  0  0
    5.1380   -1.2120   -1.2110 O   0  0  0  0  0
    1.1430    2.5020    0.9160 O   0  0  0  0  0
    0.0620   -1.7620    0.4050 C   0  0  0  0  0
   -1.1650   -2.1760    0.5320 N   0  0  0  0  0
   -2.0130   -1.1690    0.2110 C   0  0  0  0  0
   -3.4220   -1.0450    0.1670 C   0  0  0  0  0
   -4.1420   -1.9830    0.4620 O   0  0  0  0  0
   -3.9500    0.1430   -0.2050 N   0  0  0  0  0
   -3.1360    1.1840   -0.5380 C   0  0  0  0  0
   -3.7000    2.3760   -0.9170 N   0  0  0  0  0
   -1.8260    1.0810   -0.5010 N   0  0  0  0  0
   -1.2320   -0.0620   -0.1370 C   0  0  0  0  0
    1.0790    1.0320   -1.1030 H   0  0  0  0  0
    1.2560    0.6720    1.8940 H   0  0  0  0  0
    3.5680    0.6630    1.8870 H   0  0  0  0  0
    3.5700    2.1750    0.9260 H   0  0  0  0  0
    3.7290    1.0250   -1.1110 H   0  0  0  0  0
    5.6210    0.1260    0.2880 H   0  0  0  0  0
    4.5750   -1.2280    0.7770 H   0  0  0  0  0
    5.9200   -1.7430   -1.0060 H   0  0  0  0  0
    1.4640    2.9680    1.7000 H   0  0  0  0  0
    0.9420   -2.3580    0.5960 H   0  0  0  0  0
   -4.9130    0.2520   -0.2420 H   0  0  0  0  0
   -3.1330    3.1270   -1.1530 H   0  0  0  0  0
   -4.6650    2.4660   -0.9530 H   0  0  0  0  0
  1  2  1  0  0  0
  1 10  1  0  0  0
  1 19  1  0  0  0
  2  3  1  0  0  0
  2  6  1  0  0  0
  2 20  1  0  0  0
  3  4  1  0  0  0
  3  9  1  0  0  0
  3 21  1  0  0  0
  4  5  1  0  0  0
  4 22  1  0  0  0
  4 23  1  0  0  0
  5  6  1  0  0  0
  5  7  1  0  0  0
  5 24  1  0  0  0
  7  8  1  0  0  0
  7 25  1  0  0  0
  7 26  1  0  0  0
  8 27  1  0  0  0
  9 28  1  0  0  0
 10 11  2  0  0  0
 10 29  1  0  0  0
 11 12  1  0  0  0
 12 13  1  0  0  0
 12 19  2  0  0  0
 13 14  2  0  0  0
 13 15  1  0  0  0
 15 16  1  0  0  0
 15 30  1  0  0  0
 16 17  1  0  0  0
 16 18  2  0  0  0
 17 31  1  0  0  0
 17 32  1  0  0  0
 18 19  1  0  0  0
M  END
$$$$
