3DR
  CCTOOLS-1004241127

 23 23  0  0  1  0  0  0  0  0999 V2000
   -0.4420    0.5500   -0.9180 O   0  0  0  0  0
   -0.0150   -0.0510   -2.3490 P   0  0  0  0  0
   -0.2900   -1.5050   -2.3750 O   0  0  0  0  0
   -0.8610    0.6750   -3.5100 O   0  0  0  0  0
    1.5560    0.2020   -2.5900 O   0  0  0  0  0
   -0.2600   -0.5030    3.7090 C   0  0  0  0  0
    0.3380   -0.1310    0.0650 C   0  0  0  0  0
   -0.0200    0.3960    1.4560 C   0  0  0  0  0
   -1.4150    0.1440    1.7450 O   0  0  0  0  0
   -1.5250    0.2090    3.1840 C   0  0  0  0  0
    0.7510   -0.3770    2.5480 C   0  0  0  0  0
    1.9020    0.3600    2.9650 O   0  0  0  0  0
   -0.5750    0.2870   -4.3490 H   0  0  0  0  0
    1.6910    1.1590   -2.5660 H   0  0  0  0  0
   -0.4710   -1.5520    3.9180 H   0  0  0  0  0
    0.1170   -0.0040    4.6010 H   0  0  0  0  0
    1.3970    0.0420   -0.1260 H   0  0  0  0  0
    0.1300   -1.2000    0.0170 H   0  0  0  0  0
    0.1940    1.4620    1.5240 H   0  0  0  0  0
   -2.4220   -0.3120    3.5190 H   0  0  0  0  0
   -1.5420    1.2460    3.5170 H   0  0  0  0  0
    1.0410   -1.3630    2.1850 H   0  0  0  0  0
    2.3250   -0.1540    3.6650 H   0  0  0  0  0
  1  2  1  0  0  0
  1  7  1  0  0  0
  2  3  2  0  0  0
  2  4  1  0  0  0
  2  5  1  0  0  0
  4 13  1  0  0  0
  5 14  1  0  0  0
  6 10  1  0  0  0
  6 11  1  0  0  0
  6 15  1  0  0  0
  6 16  1  0  0  0
  7  8  1  0  0  0
  7 17  1  0  0  0
  7 18  1  0  0  0
  8  9  1  0  0  0
  8 11  1  0  0  0
  8 19  1  0  0  0
  9 10  1  0  0  0
 10 20  1  0  0  0
 10 21  1  0  0  0
 11 12  1  0  0  0
 11 22  1  0  0  0
 12 23  1  0  0  0
M  END
$$$$
