3E4
  CCTOOLS-0919241043

 74 79  0  0  0  0  0  0  0  0999 V2000
    5.7930   -2.3380    0.9520 C   0  0  0  0  0
    7.0280   -3.2330    0.8240 C   0  0  0  0  0
    6.7790   -4.2950   -0.2480 C   0  0  0  0  0
    7.9640   -5.1540   -0.3710 N   0  0  0  0  0
    6.5030   -3.6120   -1.5890 C   0  0  0  0  0
    5.2680   -2.7170   -1.4610 C   0  0  0  0  0
    5.5170   -1.6550   -0.3880 C   0  0  0  0  0
    4.3350   -0.7980   -0.2660 N   0  0  0  0  0
    4.4630    0.4930    0.2150 C   0  0  0  0  0
    3.3840    1.2530    0.3190 N   0  0  0  0  0
    5.6620    0.9360    0.5650 N   0  0  0  0  0
    5.8260    2.1650    1.0300 C   0  0  0  0  0
    4.7270    2.9950    1.1510 C   0  0  0  0  0
    3.4740    2.4990    0.7790 C   0  0  0  0  0
    2.2650    3.3470    0.8950 C   0  0  0  0  0
    2.3590    4.6570    1.3710 C   0  0  0  0  0
    1.1990    5.4090    1.4610 C   0  0  0  0  0
   -0.0060    4.8480    1.0800 C   0  0  0  0  0
   -0.0700    3.6090    0.6330 N   0  0  0  0  0
    1.0080    2.8520    0.5230 C   0  0  0  0  0
    0.8970    1.5850    0.0540 O   0  0  0  0  0
   -0.3400    1.1410   -0.2960 C   0  0  0  0  0
   -1.1420    0.5250    0.6370 C   0  0  0  0  0
   -0.6410    0.3460    2.0470 C   0  0  0  0  0
   -2.4100    0.0640    0.2950 C   0  0  0  0  0
   -0.8070    1.3160   -1.6140 C   0  0  0  0  0
   -0.0150    1.9460   -2.5890 C   0  0  0  0  0
   -0.4970    2.0980   -3.8530 C   0  0  0  0  0
   -1.7670    1.6370   -4.1960 C   0  0  0  0  0
   -2.5610    1.0220   -3.2770 C   0  0  0  0  0
   -2.0970    0.8470   -1.9640 C   0  0  0  0  0
   -2.8940    0.2140   -0.9860 C   0  0  0  0  0
   -4.1680   -0.2530   -1.3140 N   0  0  0  0  0
   -5.3920   -0.1700   -0.2020 S   0  0  0  0  0
   -5.3320    1.1320    0.3640 O   0  0  0  0  0
   -6.5510   -0.6870   -0.8410 O   0  0  0  0  0
   -4.9950   -1.2960    1.0950 C   0  0  0  0  0
   -4.7710   -0.8240    2.3740 C   0  0  0  0  0
   -4.4600   -1.7070    3.3920 C   0  0  0  0  0
   -4.3720   -3.0610    3.1300 C   0  0  0  0  0
   -4.5950   -3.5340    1.8500 C   0  0  0  0  0
   -4.9130   -2.6520    0.8330 C   0  0  0  0  0
   -5.2020   -3.2450   -0.7730 CL  0  0  0  0  0
    4.9330   -2.9450    1.2350 H   0  0  0  0  0
    5.9710   -1.5810    1.7160 H   0  0  0  0  0
    7.8880   -2.6260    0.5410 H   0  0  0  0  0
    7.2250   -3.7190    1.7790 H   0  0  0  0  0
    5.9180   -4.9020    0.0350 H   0  0  0  0  0
    7.8240   -5.8650   -1.0740 H   0  0  0  0  0
    8.7880   -4.6070   -0.5700 H   0  0  0  0  0
    7.3630   -3.0050   -1.8720 H   0  0  0  0  0
    6.3250   -4.3690   -2.3530 H   0  0  0  0  0
    5.0710   -2.2300   -2.4160 H   0  0  0  0  0
    4.4070   -3.3240   -1.1780 H   0  0  0  0  0
    6.3780   -1.0480   -0.6710 H   0  0  0  0  0
    3.4630   -1.1360   -0.5210 H   0  0  0  0  0
    6.8080    2.5150    1.3120 H   0  0  0  0  0
    4.8330    4.0020    1.5270 H   0  0  0  0  0
    3.3120    5.0730    1.6630 H   0  0  0  0  0
    1.2360    6.4250    1.8250 H   0  0  0  0  0
   -0.9100    5.4350    1.1500 H   0  0  0  0  0
   -0.1200   -0.6080    2.1290 H   0  0  0  0  0
    0.0450    1.1570    2.2940 H   0  0  0  0  0
   -1.4840    0.3600    2.7370 H   0  0  0  0  0
   -3.0220   -0.4170    1.0430 H   0  0  0  0  0
    0.9700    2.3080   -2.3370 H   0  0  0  0  0
    0.1130    2.5820   -4.6000 H   0  0  0  0  0
   -2.1260    1.7700   -5.2060 H   0  0  0  0  0
   -3.5430    0.6710   -3.5570 H   0  0  0  0  0
   -4.3370   -0.6260   -2.1940 H   0  0  0  0  0
   -4.8390    0.2340    2.5790 H   0  0  0  0  0
   -4.2850   -1.3380    4.3920 H   0  0  0  0  0
   -4.1280   -3.7500    3.9250 H   0  0  0  0  0
   -4.5270   -4.5920    1.6450 H   0  0  0  0  0
  1 44  1  0  0  0
  1 45  1  0  0  0
  2  1  1  0  0  0
  2 46  1  0  0  0
  2 47  1  0  0  0
  3  2  1  0  0  0
  3 48  1  0  0  0
  4  3  1  0  0  0
  4 49  1  0  0  0
  4 50  1  0  0  0
  5  3  1  0  0  0
  5  6  1  0  0  0
  5 51  1  0  0  0
  5 52  1  0  0  0
  6  7  1  0  0  0
  6 53  1  0  0  0
  6 54  1  0  0  0
  7  1  1  0  0  0
  7  8  1  0  0  0
  7 55  1  0  0  0
  8  9  1  0  0  0
  8 56  1  0  0  0
  9 10  2  0  0  0
  9 11  1  0  0  0
 10 14  1  0  0  0
 11 12  2  0  0  0
 12 13  1  0  0  0
 12 57  1  0  0  0
 13 58  1  0  0  0
 14 15  1  0  0  0
 14 13  2  0  0  0
 15 20  2  0  0  0
 15 16  1  0  0  0
 16 17  2  0  0  0
 16 59  1  0  0  0
 17 60  1  0  0  0
 18 17  1  0  0  0
 18 61  1  0  0  0
 19 18  2  0  0  0
 20 19  1  0  0  0
 21 20  1  0  0  0
 21 22  1  0  0  0
 22 26  2  0  0  0
 23 25  2  0  0  0
 23 22  1  0  0  0
 24 23  1  0  0  0
 24 62  1  0  0  0
 24 63  1  0  0  0
 24 64  1  0  0  0
 25 32  1  0  0  0
 25 65  1  0  0  0
 26 31  1  0  0  0
 26 27  1  0  0  0
 27 28  2  0  0  0
 27 66  1  0  0  0
 28 29  1  0  0  0
 28 67  1  0  0  0
 29 68  1  0  0  0
 30 29  2  0  0  0
 30 69  1  0  0  0
 31 30  1  0  0  0
 32 33  1  0  0  0
 32 31  2  0  0  0
 33 70  1  0  0  0
 34 33  1  0  0  0
 34 37  1  0  0  0
 35 34  2  0  0  0
 36 34  2  0  0  0
 37 42  1  0  0  0
 38 37  2  0  0  0
 38 39  1  0  0  0
 38 71  1  0  0  0
 39 40  2  0  0  0
 39 72  1  0  0  0
 40 41  1  0  0  0
 40 73  1  0  0  0
 41 74  1  0  0  0
 42 43  1  0  0  0
 42 41  2  0  0  0
M  END
$$$$
