3EL
  CCTOOLS-0919241043

 71 76  0  0  0  0  0  0  0  0999 V2000
   -6.4600   -0.9850    0.7860 C   0  0  0  0  0
   -7.8800   -1.5320    0.6240 C   0  0  0  0  0
   -7.8170   -2.9590    0.0770 C   0  0  0  0  0
   -9.1810   -3.4840   -0.0790 N   0  0  0  0  0
   -7.1150   -2.9540   -1.2820 C   0  0  0  0  0
   -5.6950   -2.4080   -1.1200 C   0  0  0  0  0
   -5.7570   -0.9800   -0.5730 C   0  0  0  0  0
   -4.3970   -0.4570   -0.4180 N   0  0  0  0  0
   -4.1740    0.9090   -0.4460 C   0  0  0  0  0
   -2.9390    1.3630   -0.3040 N   0  0  0  0  0
   -5.2010    1.7270   -0.6200 N   0  0  0  0  0
   -5.0290    3.0400   -0.6580 C   0  0  0  0  0
   -3.7550    3.5590   -0.5140 C   0  0  0  0  0
   -2.6910    2.6710   -0.3270 C   0  0  0  0  0
   -1.3080    3.1780   -0.1680 C   0  0  0  0  0
   -1.0450    4.5490   -0.2020 C   0  0  0  0  0
    0.2650    4.9720   -0.0480 C   0  0  0  0  0
    1.2640    4.0350    0.1340 C   0  0  0  0  0
    0.9920    2.7440    0.1620 N   0  0  0  0  0
   -0.2420    2.2900    0.0250 C   0  0  0  0  0
   -0.4750    0.9550    0.0620 O   0  0  0  0  0
    0.5950    0.1220    0.1530 C   0  0  0  0  0
    1.1490   -0.4070   -0.9770 C   0  0  0  0  0
    2.2460   -1.2610   -0.9060 C   0  0  0  0  0
    1.1400   -0.1930    1.4150 C   0  0  0  0  0
    0.5950    0.3390    2.5950 C   0  0  0  0  0
    1.1450    0.0130    3.7970 C   0  0  0  0  0
    2.2420   -0.8420    3.8760 C   0  0  0  0  0
    2.7960   -1.3750    2.7510 C   0  0  0  0  0
    2.2550   -1.0620    1.4950 C   0  0  0  0  0
    2.8020   -1.5970    0.3090 C   0  0  0  0  0
    3.9010   -2.4570    0.3660 N   0  0  0  0  0
    5.0570   -2.4020   -0.8180 S   0  0  0  0  0
    6.0960   -3.2790   -0.4050 O   0  0  0  0  0
    4.3720   -2.5370   -2.0550 O   0  0  0  0  0
    5.7420   -0.7780   -0.8040 C   0  0  0  0  0
    6.8370   -0.4970   -0.0080 C   0  0  0  0  0
    7.3740    0.7770    0.0030 C   0  0  0  0  0
    6.8170    1.7690   -0.7810 C   0  0  0  0  0
    5.7220    1.4870   -1.5770 C   0  0  0  0  0
    5.1880    0.2120   -1.5930 C   0  0  0  0  0
   -6.5040    0.0320    1.1760 H   0  0  0  0  0
   -5.9050   -1.6160    1.4800 H   0  0  0  0  0
   -8.3800   -1.5350    1.5920 H   0  0  0  0  0
   -8.4350   -0.9000   -0.0700 H   0  0  0  0  0
   -7.2620   -3.5900    0.7710 H   0  0  0  0  0
   -9.1660   -4.4260   -0.4390 H   0  0  0  0  0
   -9.6880   -3.4370    0.7920 H   0  0  0  0  0
   -7.0700   -3.9710   -1.6720 H   0  0  0  0  0
   -7.6700   -2.3230   -1.9760 H   0  0  0  0  0
   -5.1390   -3.0390   -0.4260 H   0  0  0  0  0
   -5.1940   -2.4040   -2.0880 H   0  0  0  0  0
   -6.3120   -0.3490   -1.2670 H   0  0  0  0  0
   -3.6540   -1.0680   -0.2950 H   0  0  0  0  0
   -5.8730    3.6970   -0.8050 H   0  0  0  0  0
   -3.5870    4.6250   -0.5420 H   0  0  0  0  0
   -1.8440    5.2610   -0.3460 H   0  0  0  0  0
    0.5030    6.0250   -0.0700 H   0  0  0  0  0
    2.2860    4.3650    0.2530 H   0  0  0  0  0
    0.7300   -0.1590   -1.9410 H   0  0  0  0  0
    2.6660   -1.6670   -1.8150 H   0  0  0  0  0
   -0.2550    1.0030    2.5490 H   0  0  0  0  0
    0.7240    0.4230    4.7040 H   0  0  0  0  0
    2.6600   -1.0850    4.8410 H   0  0  0  0  0
    3.6470   -2.0360    2.8270 H   0  0  0  0  0
    3.9870   -3.0860    1.0990 H   0  0  0  0  0
    7.2720   -1.2720    0.6050 H   0  0  0  0  0
    8.2290    0.9970    0.6250 H   0  0  0  0  0
    7.2360    2.7640   -0.7720 H   0  0  0  0  0
    5.2860    2.2630   -2.1900 H   0  0  0  0  0
    4.3360   -0.0090   -2.2180 H   0  0  0  0  0
  1  2  1  0  0  0
  1 42  1  0  0  0
  1 43  1  0  0  0
  2 44  1  0  0  0
  2 45  1  0  0  0
  3  2  1  0  0  0
  3  4  1  0  0  0
  3 46  1  0  0  0
  4 47  1  0  0  0
  4 48  1  0  0  0
  5  3  1  0  0  0
  5 49  1  0  0  0
  5 50  1  0  0  0
  6  7  1  0  0  0
  6  5  1  0  0  0
  6 51  1  0  0  0
  6 52  1  0  0  0
  7  1  1  0  0  0
  7 53  1  0  0  0
  8  7  1  0  0  0
  8 54  1  0  0  0
  9 10  1  0  0  0
  9  8  1  0  0  0
 11  9  2  0  0  0
 12 13  2  0  0  0
 12 11  1  0  0  0
 12 55  1  0  0  0
 13 14  1  0  0  0
 13 56  1  0  0  0
 14 15  1  0  0  0
 14 10  2  0  0  0
 15 16  2  0  0  0
 16 17  1  0  0  0
 16 57  1  0  0  0
 17 58  1  0  0  0
 18 17  2  0  0  0
 18 59  1  0  0  0
 19 18  1  0  0  0
 20 19  2  0  0  0
 20 15  1  0  0  0
 21 20  1  0  0  0
 22 21  1  0  0  0
 22 23  2  0  0  0
 23 60  1  0  0  0
 24 23  1  0  0  0
 24 61  1  0  0  0
 25 22  1  0  0  0
 26 25  2  0  0  0
 26 62  1  0  0  0
 27 26  1  0  0  0
 27 63  1  0  0  0
 28 27  2  0  0  0
 28 29  1  0  0  0
 28 64  1  0  0  0
 29 30  2  0  0  0
 29 65  1  0  0  0
 30 25  1  0  0  0
 30 31  1  0  0  0
 31 24  2  0  0  0
 32 31  1  0  0  0
 32 66  1  0  0  0
 33 32  1  0  0  0
 33 36  1  0  0  0
 34 33  2  0  0  0
 35 33  2  0  0  0
 36 37  1  0  0  0
 37 38  2  0  0  0
 37 67  1  0  0  0
 38 68  1  0  0  0
 39 38  1  0  0  0
 39 69  1  0  0  0
 40 39  2  0  0  0
 40 70  1  0  0  0
 41 36  2  0  0  0
 41 40  1  0  0  0
 41 71  1  0  0  0
M  END
$$$$
