3FG
  CCTOOLS-1004241127

 22 22  0  0  1  0  0  0  0  0999 V2000
    1.9830    0.8930    1.6690 N   0  0  0  0  0
   -2.8220   -2.1930    0.0620 O   0  0  0  0  0
   -2.0150   -1.1000    0.0730 C   0  0  0  0  0
   -0.6810   -1.2260    0.4350 C   0  0  0  0  0
   -2.5210    0.1400   -0.2830 C   0  0  0  0  0
   -1.6950    1.2530   -0.2710 C   0  0  0  0  0
   -2.1880    2.4710   -0.6190 O   0  0  0  0  0
   -0.3630    1.1230    0.0980 C   0  0  0  0  0
    0.1400   -0.1150    0.4470 C   0  0  0  0  0
    1.5880   -0.2540    0.8410 C   0  0  0  0  0
    2.4450   -0.2970   -0.3980 C   0  0  0  0  0
    3.0280    0.6960   -0.7640 O   0  0  0  0  0
    2.5590   -1.4380   -1.0960 O   0  0  0  0  0
    2.9310    0.7910    2.0000 H   0  0  0  0  0
    1.8670    1.7600    1.1660 H   0  0  0  0  0
    1.7240   -1.1750    1.4080 H   0  0  0  0  0
   -3.2710   -2.3590    0.9020 H   0  0  0  0  0
   -0.2850   -2.1930    0.7090 H   0  0  0  0  0
   -3.5580    0.2390   -0.5700 H   0  0  0  0  0
   -2.5490    2.9760    0.1230 H   0  0  0  0  0
    0.2810    1.9900    0.1080 H   0  0  0  0  0
    3.1200   -1.4160   -1.8840 H   0  0  0  0  0
  1 10  1  0  0  0
  1 14  1  0  0  0
  1 15  1  0  0  0
  2  3  1  0  0  0
  2 17  1  0  0  0
  3  4  1  0  0  0
  3  5  2  0  0  0
  4  9  2  0  0  0
  4 18  1  0  0  0
  5  6  1  0  0  0
  5 19  1  0  0  0
  6  7  1  0  0  0
  6  8  2  0  0  0
  7 20  1  0  0  0
  8  9  1  0  0  0
  8 21  1  0  0  0
  9 10  1  0  0  0
 10 11  1  0  0  0
 10 16  1  0  0  0
 11 12  2  0  0  0
 11 13  1  0  0  0
 13 22  1  0  0  0
M  END
$$$$
