3GY
  CCTOOLS-0919241044

 24 24  0  0  1  0  0  0  0  0999 V2000
    3.5070    0.1580    0.7390 C   0  0  0  0  0
    2.0170   -0.1570    0.8850 C   0  0  0  0  0
    1.2590    0.3890   -0.3270 C   0  0  0  0  0
    1.7080   -0.3540   -1.5870 C   0  0  0  0  0
   -0.2210    0.1880   -0.1260 C   0  0  0  0  0
   -1.0710    1.2780   -0.1070 C   0  0  0  0  0
   -2.4280    1.0940    0.0770 C   0  0  0  0  0
   -2.9360   -0.1810    0.2420 C   0  0  0  0  0
   -2.0870   -1.2710    0.2230 C   0  0  0  0  0
   -0.7300   -1.0870    0.0330 C   0  0  0  0  0
    4.0470   -0.2310    1.6020 H   0  0  0  0  0
    3.8890   -0.3080   -0.1690 H   0  0  0  0  0
    3.6460    1.2380    0.6800 H   0  0  0  0  0
    1.8780   -1.2360    0.9440 H   0  0  0  0  0
    1.6340    0.3090    1.7930 H   0  0  0  0  0
    1.4690    1.4530   -0.4380 H   0  0  0  0  0
    1.1680    0.0350   -2.4500 H   0  0  0  0  0
    2.7790   -0.2080   -1.7320 H   0  0  0  0  0
    1.4980   -1.4180   -1.4760 H   0  0  0  0  0
   -0.6740    2.2740   -0.2350 H   0  0  0  0  0
   -3.0920    1.9460    0.0930 H   0  0  0  0  0
   -3.9970   -0.3250    0.3870 H   0  0  0  0  0
   -2.4840   -2.2680    0.3520 H   0  0  0  0  0
   -0.0660   -1.9390    0.0180 H   0  0  0  0  0
  1  2  1  0  0  0
  1 11  1  0  0  0
  1 12  1  0  0  0
  1 13  1  0  0  0
  2  3  1  0  0  0
  2 14  1  0  0  0
  2 15  1  0  0  0
  3  5  1  0  0  0
  3  4  1  0  0  0
  3 16  1  0  0  0
  4 17  1  0  0  0
  4 18  1  0  0  0
  4 19  1  0  0  0
  5  6  2  0  0  0
  6  7  1  0  0  0
  6 20  1  0  0  0
  7 21  1  0  0  0
  8  7  2  0  0  0
  8 22  1  0  0  0
  9  8  1  0  0  0
  9 23  1  0  0  0
 10  9  2  0  0  0
 10  5  1  0  0  0
 10 24  1  0  0  0
M  END
$$$$
