3GZ
  CCTOOLS-0919241044

 30 30  0  0  0  0  0  0  0  0999 V2000
   -5.6530   -0.0070   -0.8560 C   0  0  0  0  0
   -4.5780    0.0020    0.2330 C   0  0  0  0  0
   -3.1930   -0.0030   -0.4170 C   0  0  0  0  0
   -2.1180    0.0060    0.6710 C   0  0  0  0  0
   -0.7330    0.0000    0.0210 C   0  0  0  0  0
    0.3420    0.0100    1.1100 C   0  0  0  0  0
    1.7060    0.0040    0.4690 C   0  0  0  0  0
    2.3290   -1.1960    0.1810 C   0  0  0  0  0
    3.5800   -1.2010   -0.4070 C   0  0  0  0  0
    4.2080   -0.0070   -0.7070 C   0  0  0  0  0
    3.5840    1.1930   -0.4190 C   0  0  0  0  0
    2.3310    1.1990    0.1650 C   0  0  0  0  0
   -6.6390   -0.0030   -0.3930 H   0  0  0  0  0
   -5.5420    0.8770   -1.4830 H   0  0  0  0  0
   -5.5420   -0.9030   -1.4670 H   0  0  0  0  0
   -4.6880    0.8980    0.8450 H   0  0  0  0  0
   -4.6880   -0.8820    0.8600 H   0  0  0  0  0
   -3.0830   -0.8990   -1.0290 H   0  0  0  0  0
   -3.0820    0.8810   -1.0450 H   0  0  0  0  0
   -2.2280    0.9010    1.2830 H   0  0  0  0  0
   -2.2290   -0.8780    1.2990 H   0  0  0  0  0
   -0.6230   -0.8950   -0.5910 H   0  0  0  0  0
   -0.6230    0.8850   -0.6070 H   0  0  0  0  0
    0.2310    0.9050    1.7210 H   0  0  0  0  0
    0.2310   -0.8750    1.7370 H   0  0  0  0  0
    1.8380   -2.1290    0.4150 H   0  0  0  0  0
    4.0670   -2.1380   -0.6320 H   0  0  0  0  0
    5.1860   -0.0110   -1.1650 H   0  0  0  0  0
    4.0750    2.1260   -0.6530 H   0  0  0  0  0
    1.8430    2.1360    0.3860 H   0  0  0  0  0
  1 13  1  0  0  0
  1 14  1  0  0  0
  1 15  1  0  0  0
  2  1  1  0  0  0
  2 16  1  0  0  0
  2 17  1  0  0  0
  3  2  1  0  0  0
  3 18  1  0  0  0
  3 19  1  0  0  0
  4  3  1  0  0  0
  4 20  1  0  0  0
  4 21  1  0  0  0
  5  6  1  0  0  0
  5  4  1  0  0  0
  5 22  1  0  0  0
  5 23  1  0  0  0
  6  7  1  0  0  0
  6 24  1  0  0  0
  6 25  1  0  0  0
  7 12  1  0  0  0
  8  7  2  0  0  0
  8  9  1  0  0  0
  8 26  1  0  0  0
  9 10  2  0  0  0
  9 27  1  0  0  0
 10 11  1  0  0  0
 10 28  1  0  0  0
 11 29  1  0  0  0
 12 11  2  0  0  0
 12 30  1  0  0  0
M  END
$$$$
