3H0
  CCTOOLS-0919241044

 21 21  0  0  0  0  0  0  0  0999 V2000
    3.7450    0.0000   -0.2270 C   0  0  0  0  0
    2.2570    0.0010   -0.5820 C   0  0  0  0  0
    1.4260   -0.0020    0.7030 C   0  0  0  0  0
   -0.0400   -0.0010    0.3530 C   0  0  0  0  0
   -0.7110    1.1970    0.1900 C   0  0  0  0  0
   -2.0540    1.1980   -0.1360 C   0  0  0  0  0
   -2.7260    0.0010   -0.2990 C   0  0  0  0  0
   -2.0550   -1.1960   -0.1380 C   0  0  0  0  0
   -0.7120   -1.1970    0.1890 C   0  0  0  0  0
    3.9790   -0.8910    0.3550 H   0  0  0  0  0
    4.3370    0.0020   -1.1420 H   0  0  0  0  0
    3.9800    0.8880    0.3600 H   0  0  0  0  0
    2.0230    0.8930   -1.1640 H   0  0  0  0  0
    2.0230   -0.8870   -1.1680 H   0  0  0  0  0
    1.6600   -0.8930    1.2850 H   0  0  0  0  0
    1.6600    0.8870    1.2890 H   0  0  0  0  0
   -0.1850    2.1320    0.3180 H   0  0  0  0  0
   -2.5780    2.1340   -0.2630 H   0  0  0  0  0
   -3.7760    0.0020   -0.5540 H   0  0  0  0  0
   -2.5810   -2.1310   -0.2650 H   0  0  0  0  0
   -0.1870   -2.1330    0.3120 H   0  0  0  0  0
  1 10  1  0  0  0
  1 11  1  0  0  0
  1 12  1  0  0  0
  2  1  1  0  0  0
  2 13  1  0  0  0
  2 14  1  0  0  0
  3  2  1  0  0  0
  3 15  1  0  0  0
  3 16  1  0  0  0
  4  9  1  0  0  0
  4  3  1  0  0  0
  5  4  2  0  0  0
  5 17  1  0  0  0
  6  7  2  0  0  0
  6  5  1  0  0  0
  6 18  1  0  0  0
  7  8  1  0  0  0
  7 19  1  0  0  0
  8  9  2  0  0  0
  8 20  1  0  0  0
  9 21  1  0  0  0
M  END
$$$$
