3H2
  CCTOOLS-0919241044

 27 27  0  0  0  0  0  0  0  0999 V2000
    5.1190   -0.0000   -0.2010 C   0  0  0  0  0
    3.6930   -0.0010   -0.7570 C   0  0  0  0  0
    2.6940    0.0010    0.4020 C   0  0  0  0  0
    1.2680   -0.0000   -0.1540 C   0  0  0  0  0
    0.2690    0.0020    1.0050 C   0  0  0  0  0
   -1.1350    0.0010    0.4570 C   0  0  0  0  0
   -1.7790   -1.1970    0.2080 C   0  0  0  0  0
   -3.0670   -1.1980   -0.2940 C   0  0  0  0  0
   -3.7110   -0.0010   -0.5480 C   0  0  0  0  0
   -3.0670    1.1960   -0.2990 C   0  0  0  0  0
   -1.7810    1.1970    0.2090 C   0  0  0  0  0
    5.2700   -0.8890    0.4110 H   0  0  0  0  0
    5.8300   -0.0020   -1.0270 H   0  0  0  0  0
    5.2700    0.8910    0.4080 H   0  0  0  0  0
    3.5410    0.8870   -1.3700 H   0  0  0  0  0
    3.5410   -0.8930   -1.3660 H   0  0  0  0  0
    2.8460   -0.8880    1.0140 H   0  0  0  0  0
    2.8460    0.8920    1.0110 H   0  0  0  0  0
    1.1170    0.8880   -0.7670 H   0  0  0  0  0
    1.1170   -0.8910   -0.7630 H   0  0  0  0  0
    0.4210   -0.8870    1.6170 H   0  0  0  0  0
    0.4210    0.8930    1.6130 H   0  0  0  0  0
   -1.2750   -2.1320    0.4060 H   0  0  0  0  0
   -3.5690   -2.1340   -0.4890 H   0  0  0  0  0
   -4.7170   -0.0020   -0.9400 H   0  0  0  0  0
   -3.5710    2.1310   -0.4930 H   0  0  0  0  0
   -1.2780    2.1330    0.4030 H   0  0  0  0  0
  1 12  1  0  0  0
  1 13  1  0  0  0
  1 14  1  0  0  0
  2  3  1  0  0  0
  2  1  1  0  0  0
  2 15  1  0  0  0
  2 16  1  0  0  0
  3 17  1  0  0  0
  3 18  1  0  0  0
  4  5  1  0  0  0
  4  3  1  0  0  0
  4 19  1  0  0  0
  4 20  1  0  0  0
  5 21  1  0  0  0
  5 22  1  0  0  0
  6  5  1  0  0  0
  6  7  2  0  0  0
  7  8  1  0  0  0
  7 23  1  0  0  0
  8 24  1  0  0  0
  9  8  2  0  0  0
  9 25  1  0  0  0
 10 11  2  0  0  0
 10  9  1  0  0  0
 10 26  1  0  0  0
 11  6  1  0  0  0
 11 27  1  0  0  0
M  END
$$$$
