3HM
  CCTOOLS-0919241044

 18 18  0  0  0  0  0  0  0  0999 V2000
    3.3020   -0.8620    0.0060 C   0  0  0  0  0
    1.8240   -0.5670    0.0040 C   0  0  0  0  0
    0.9630   -1.5650   -0.0050 N   0  0  0  0  0
   -0.3380   -1.3620   -0.0070 C   0  0  0  0  0
   -0.8570   -0.0660    0.0010 C   0  0  0  0  0
   -2.3180    0.1580   -0.0000 C   0  0  0  0  0
   -3.1600   -0.8930   -0.0100 O   0  0  0  0  0
   -2.7590    1.2890    0.0070 O   0  0  0  0  0
    0.0290    1.0180    0.0120 C   0  0  0  0  0
    1.3910    0.7530    0.0190 C   0  0  0  0  0
    2.2900    1.7720    0.0340 O   0  0  0  0  0
    3.6550   -0.9460    1.0340 H   0  0  0  0  0
    3.4860   -1.8000   -0.5180 H   0  0  0  0  0
    3.8350   -0.0550   -0.4960 H   0  0  0  0  0
   -1.0110   -2.2070   -0.0160 H   0  0  0  0  0
   -4.1070   -0.6970   -0.0100 H   0  0  0  0  0
   -0.3380    2.0340    0.0180 H   0  0  0  0  0
    2.5540    2.0770   -0.8450 H   0  0  0  0  0
  1  2  1  0  0  0
  1 12  1  0  0  0
  1 13  1  0  0  0
  1 14  1  0  0  0
  2 10  1  0  0  0
  3  2  2  0  0  0
  3  4  1  0  0  0
  4  5  2  0  0  0
  4 15  1  0  0  0
  5  9  1  0  0  0
  5  6  1  0  0  0
  6  7  1  0  0  0
  7 16  1  0  0  0
  8  6  2  0  0  0
  9 17  1  0  0  0
 10  9  2  0  0  0
 10 11  1  0  0  0
 11 18  1  0  0  0
M  END
$$$$
