3HU
  CCTOOLS-0919241044

 39 41  0  0  1  0  0  0  0  0999 V2000
   -4.2190    2.8730   -0.1010 C   0  0  0  0  0
   -3.9830    0.7870    1.1220 N   0  0  0  0  0
   -3.7930    4.1090   -0.4050 O   0  0  0  0  0
   -3.2460    1.8500    0.4260 C   0  0  0  0  0
   -2.4590    1.2460   -0.7400 C   0  0  0  0  0
    4.1580    0.8900    2.1740 O   0  0  0  0  0
    0.9500   -2.5890    1.1590 O   0  0  0  0  0
    0.0250    1.6020    0.1050 O   0  0  0  0  0
    5.9600    1.4400    0.9950 O   0  0  0  0  0
    3.3200   -0.3880   -2.3360 C   0  0  0  0  0
    2.3740   -0.4760   -1.3940 C   0  0  0  0  0
   -1.7810   -3.4300    0.3070 C   0  0  0  0  0
   -3.2910   -1.6370   -0.5500 C   0  0  0  0  0
    1.8350   -0.0600    1.0500 C   0  0  0  0  0
   -3.3750   -3.3670   -0.2850 S   0  0  0  0  0
    4.7640    0.2560   -1.6940 S   0  0  0  0  0
    4.7180    0.9240    1.0940 C   0  0  0  0  0
    2.7520   -0.0430   -0.1460 C   0  0  0  0  0
    4.0430    0.4040   -0.0970 C   0  0  0  0  0
    0.1560   -1.7740    0.7300 C   0  0  0  0  0
   -0.3540    0.4490    0.1640 C   0  0  0  0  0
   -1.2010   -2.1940    0.3070 C   0  0  0  0  0
   -2.0940   -1.1550   -0.1960 C   0  0  0  0  0
    0.4940   -0.4760    0.6320 N   0  0  0  0  0
   -1.6000    0.1690   -0.2430 N   0  0  0  0  0
   -5.3820    2.5820   -0.2470 O   0  0  0  0  0
   -4.6290    0.3270    0.4990 H   0  0  0  0  0
   -3.3490    0.1220    1.5400 H   0  0  0  0  0
   -4.4550    4.7320   -0.7350 H   0  0  0  0  0
   -2.5560    2.3290    1.1200 H   0  0  0  0  0
   -3.1540    0.8450   -1.4780 H   0  0  0  0  0
   -1.8440    2.0180   -1.2010 H   0  0  0  0  0
    6.3640    1.7700    1.8090 H   0  0  0  0  0
    3.1890   -0.6880   -3.3650 H   0  0  0  0  0
    1.3850   -0.8590   -1.5990 H   0  0  0  0  0
   -1.2920   -4.3320    0.6440 H   0  0  0  0  0
   -4.0980   -1.0390   -0.9470 H   0  0  0  0  0
    2.2180   -0.7610    1.7920 H   0  0  0  0  0
    1.7860    0.9390    1.4850 H   0  0  0  0  0
  1 26  2  0  0  0
  1  3  1  0  0  0
  2  4  1  0  0  0
  2 27  1  0  0  0
  2 28  1  0  0  0
  3 29  1  0  0  0
  4  1  1  0  0  0
  4 30  1  0  0  0
  5  4  1  0  0  0
  5 31  1  0  0  0
  5 32  1  0  0  0
  7 20  2  0  0  0
  9 33  1  0  0  0
 10 11  2  0  0  0
 10 16  1  0  0  0
 10 34  1  0  0  0
 11 18  1  0  0  0
 11 35  1  0  0  0
 12 15  1  0  0  0
 12 22  2  0  0  0
 12 36  1  0  0  0
 13 23  2  0  0  0
 13 37  1  0  0  0
 14 38  1  0  0  0
 14 39  1  0  0  0
 15 13  1  0  0  0
 16 19  1  0  0  0
 17  6  2  0  0  0
 17  9  1  0  0  0
 18 14  1  0  0  0
 18 19  2  0  0  0
 19 17  1  0  0  0
 20 24  1  0  0  0
 21  8  2  0  0  0
 22 20  1  0  0  0
 22 23  1  0  0  0
 23 25  1  0  0  0
 24 14  1  0  0  0
 24 21  1  0  0  0
 25  5  1  0  0  0
 25 21  1  0  0  0
M  END
$$$$
