3JP
  CCTOOLS-0919241044

 69 72  0  0  1  0  0  0  0  0999 V2000
   -6.7020    0.2540   -3.5000 C   0  0  0  0  0
   -7.3330    0.9270   -2.4090 O   0  0  0  0  0
   -6.7800    0.7610   -1.1780 C   0  0  0  0  0
   -5.6510   -0.0280   -1.0260 C   0  0  0  0  0
   -7.3430    1.3870   -0.0710 C   0  0  0  0  0
   -8.4490    2.1660   -0.2190 O   0  0  0  0  0
   -8.9740    2.7780    0.9610 C   0  0  0  0  0
   -6.7780    1.2170    1.1820 C   0  0  0  0  0
   -5.6550    0.4260    1.3340 C   0  0  0  0  0
   -5.0880   -0.1960    0.2300 C   0  0  0  0  0
   -3.9800   -0.9690    0.3810 O   0  0  0  0  0
   -3.4540   -1.0980    1.7030 C   0  0  0  0  0
   -2.2170   -1.9990    1.6740 C   0  0  0  0  0
   -1.1510   -1.3460    0.8910 N   0  0  0  0  0
   -0.2990   -0.5500    1.5460 C   0  0  0  0  0
   -0.4350   -0.4240    2.7560 O   0  0  0  0  0
   -1.0990   -1.5890   -0.5480 C   0  0  0  0  0
    0.1800   -2.3090   -0.9610 C   0  0  0  0  0
    0.5370   -3.4000    0.0480 C   0  0  0  0  0
   -0.5430   -4.4830    0.0300 C   0  0  0  0  0
    1.3400   -1.3290   -1.0960 C   0  0  0  0  0
    1.0340   -0.2400   -2.1150 C   0  0  0  0  0
    1.0190    1.1380   -1.4650 C   0  0  0  0  0
    0.2120    1.1550   -0.1760 C   0  0  0  0  0
    0.8100    0.1960    0.8550 C   0  0  0  0  0
    1.7090   -0.7470    0.1880 N   0  0  0  0  0
    3.1550   -1.1500    0.8950 S   0  0  0  0  0
    3.0010   -0.9110    2.2870 O   0  0  0  0  0
    3.5250   -2.4120    0.3580 O   0  0  0  0  0
    4.3550    0.0060    0.3210 C   0  0  0  0  0
    4.5750    1.1780    1.0200 C   0  0  0  0  0
    5.5170    2.0860    0.5700 C   0  0  0  0  0
    5.7930    3.5570    1.4480 CL  0  0  0  0  0
    6.2390    1.8200   -0.5790 C   0  0  0  0  0
    6.0190    0.6470   -1.2780 C   0  0  0  0  0
    6.9250    0.3120   -2.7210 CL  0  0  0  0  0
    5.0800   -0.2630   -0.8240 C   0  0  0  0  0
   -5.6720    0.5990   -3.5930 H   0  0  0  0  0
   -6.7100   -0.8210   -3.3180 H   0  0  0  0  0
   -7.2420    0.4700   -4.4220 H   0  0  0  0  0
   -5.2100   -0.5120   -1.8840 H   0  0  0  0  0
   -9.2530    2.0060    1.6770 H   0  0  0  0  0
   -8.2170    3.4260    1.4020 H   0  0  0  0  0
   -9.8530    3.3690    0.7030 H   0  0  0  0  0
   -7.2150    1.7040    2.0420 H   0  0  0  0  0
   -5.2150    0.2950    2.3110 H   0  0  0  0  0
   -3.1770   -0.1140    2.0820 H   0  0  0  0  0
   -4.2090   -1.5390    2.3540 H   0  0  0  0  0
   -1.8680   -2.1690    2.6930 H   0  0  0  0  0
   -2.4740   -2.9530    1.2140 H   0  0  0  0  0
   -1.9590   -2.2160   -0.8280 H   0  0  0  0  0
   -1.1910   -0.6510   -1.0950 H   0  0  0  0  0
    0.0150   -2.7820   -1.9380 H   0  0  0  0  0
    1.4980   -3.8400   -0.2180 H   0  0  0  0  0
    0.6000   -2.9650    1.0450 H   0  0  0  0  0
   -0.2880   -5.2620    0.7500 H   0  0  0  0  0
   -1.5040   -4.0430    0.2960 H   0  0  0  0  0
   -0.6060   -4.9180   -0.9670 H   0  0  0  0  0
    2.2040   -1.8890   -1.4640 H   0  0  0  0  0
    1.7990   -0.2580   -2.8930 H   0  0  0  0  0
    0.0640   -0.4350   -2.5690 H   0  0  0  0  0
    2.0450    1.4380   -1.2470 H   0  0  0  0  0
    0.5860    1.8550   -2.1650 H   0  0  0  0  0
    0.2320    2.1720    0.2350 H   0  0  0  0  0
   -0.8230    0.8930   -0.3800 H   0  0  0  0  0
    1.3810    0.7740    1.5990 H   0  0  0  0  0
    4.0110    1.3850    1.9180 H   0  0  0  0  0
    6.9750    2.5290   -0.9310 H   0  0  0  0  0
    4.9080   -1.1790   -1.3700 H   0  0  0  0  0
  1  2  1  0  0  0
  1 38  1  0  0  0
  1 39  1  0  0  0
  1 40  1  0  0  0
  2  3  1  0  0  0
  3  5  2  0  0  0
  4 10  2  0  0  0
  4  3  1  0  0  0
  4 41  1  0  0  0
  5  8  1  0  0  0
  5  6  1  0  0  0
  6  7  1  0  0  0
  7 42  1  0  0  0
  7 43  1  0  0  0
  7 44  1  0  0  0
  8 45  1  0  0  0
  9  8  2  0  0  0
  9 46  1  0  0  0
 10  9  1  0  0  0
 11 10  1  0  0  0
 12 11  1  0  0  0
 12 13  1  0  0  0
 12 47  1  0  0  0
 12 48  1  0  0  0
 13 14  1  0  0  0
 13 49  1  0  0  0
 13 50  1  0  0  0
 14 15  1  0  0  0
 15 16  2  0  0  0
 15 25  1  0  0  0
 17 14  1  0  0  0
 17 18  1  0  0  0
 17 51  1  0  0  0
 17 52  1  0  0  0
 18 21  1  0  0  0
 18 53  1  0  0  0
 19 18  1  0  0  0
 19 54  1  0  0  0
 19 55  1  0  0  0
 20 19  1  0  0  0
 20 56  1  0  0  0
 20 57  1  0  0  0
 20 58  1  0  0  0
 21 22  1  0  0  0
 21 59  1  0  0  0
 22 23  1  0  0  0
 22 60  1  0  0  0
 22 61  1  0  0  0
 23 62  1  0  0  0
 23 63  1  0  0  0
 24 23  1  0  0  0
 24 64  1  0  0  0
 24 65  1  0  0  0
 25 24  1  0  0  0
 25 66  1  0  0  0
 26 27  1  0  0  0
 26 21  1  0  0  0
 26 25  1  0  0  0
 27 28  2  0  0  0
 27 29  2  0  0  0
 30 27  1  0  0  0
 31 30  2  0  0  0
 31 67  1  0  0  0
 32 31  1  0  0  0
 33 32  1  0  0  0
 34 32  2  0  0  0
 34 35  1  0  0  0
 34 68  1  0  0  0
 35 37  2  0  0  0
 36 35  1  0  0  0
 37 30  1  0  0  0
 37 69  1  0  0  0
M  END
$$$$
