3JQ
  CCTOOLS-0919241044

 71 74  0  0  1  0  0  0  0  0999 V2000
   -7.1120    1.5480   -2.4650 C   0  0  0  0  0
   -7.6400    0.7800   -1.3820 O   0  0  0  0  0
   -6.7580    0.0260   -0.6720 C   0  0  0  0  0
   -5.4010    0.1090   -0.9400 C   0  0  0  0  0
   -7.2160   -0.8250    0.3280 C   0  0  0  0  0
   -8.5480   -0.9050    0.5960 O   0  0  0  0  0
   -8.9480   -1.8000    1.6370 C   0  0  0  0  0
   -6.3170   -1.5920    1.0510 C   0  0  0  0  0
   -4.9640   -1.5120    0.7780 C   0  0  0  0  0
   -4.5040   -0.6600   -0.2150 C   0  0  0  0  0
   -3.1720   -0.5790   -0.4770 O   0  0  0  0  0
   -2.3160   -1.4820    0.2260 C   0  0  0  0  0
   -0.8820   -1.3250   -0.2830 C   0  0  0  0  0
   -0.3840    0.0220    0.0550 N   0  0  0  0  0
    0.2430    0.1760    1.2260 C   0  0  0  0  0
    0.3870   -0.8070    1.9410 O   0  0  0  0  0
   -0.6210    1.1080   -0.8930 C   0  0  0  0  0
    0.6790    1.6700   -1.4560 C   0  0  0  0  0
    1.6680    0.5460   -1.7600 C   0  0  0  0  0
    1.8160   -0.2840   -0.6060 O   0  0  0  0  0
    1.1440   -0.2930   -2.9270 C   0  0  0  0  0
    2.1020   -1.2990   -3.2590 O   0  0  0  0  0
    1.3100    2.6650   -0.4880 C   0  0  0  0  0
    0.3660    3.8200   -0.1830 C   0  0  0  0  0
    0.0030    3.8620    1.2960 C   0  0  0  0  0
   -0.3880    2.4930    1.8320 C   0  0  0  0  0
    0.7710    1.5040    1.6970 C   0  0  0  0  0
    1.7520    2.0200    0.7420 N   0  0  0  0  0
    3.3730    1.8730    1.0620 S   0  0  0  0  0
    4.0390    2.7650    0.1790 O   0  0  0  0  0
    3.5100    1.9330    2.4750 O   0  0  0  0  0
    3.8550    0.2470    0.5840 C   0  0  0  0  0
    4.4400    0.0350   -0.6500 C   0  0  0  0  0
    4.8180   -1.2420   -1.0270 C   0  0  0  0  0
    5.5530   -1.5080   -2.5770 CL  0  0  0  0  0
    4.6100   -2.3060   -0.1680 C   0  0  0  0  0
    4.0250   -2.0930    1.0670 C   0  0  0  0  0
    3.7630   -3.4280    2.1460 CL  0  0  0  0  0
    3.6520   -0.8150    1.4450 C   0  0  0  0  0
   -6.4310    2.3050   -2.0760 H   0  0  0  0  0
   -6.5730    0.8900   -3.1480 H   0  0  0  0  0
   -7.9290    2.0340   -2.9980 H   0  0  0  0  0
   -5.0430    0.7720   -1.7140 H   0  0  0  0  0
  -10.0320   -1.7680    1.7470 H   0  0  0  0  0
   -8.6390   -2.8140    1.3820 H   0  0  0  0  0
   -8.4780   -1.5020    2.5730 H   0  0  0  0  0
   -6.6720   -2.2530    1.8270 H   0  0  0  0  0
   -4.2640   -2.1100    1.3420 H   0  0  0  0  0
   -2.3500   -1.2580    1.2920 H   0  0  0  0  0
   -2.6510   -2.5050    0.0580 H   0  0  0  0  0
   -0.2460   -2.0760    0.1860 H   0  0  0  0  0
   -0.8630   -1.4580   -1.3650 H   0  0  0  0  0
   -1.2230    0.7180   -1.7270 H   0  0  0  0  0
   -1.1970    1.9040   -0.4210 H   0  0  0  0  0
    0.4560    2.1970   -2.3930 H   0  0  0  0  0
    2.6350    0.9740   -2.0260 H   0  0  0  0  0
    1.1310   -0.9610   -0.5180 H   0  0  0  0  0
    0.2040   -0.7660   -2.6410 H   0  0  0  0  0
    0.9790    0.3510   -3.7910 H   0  0  0  0  0
    1.8350   -1.8700   -3.9930 H   0  0  0  0  0
    2.1940    3.0860   -0.9760 H   0  0  0  0  0
    0.8530    4.7570   -0.4560 H   0  0  0  0  0
   -0.5420    3.7090   -0.7740 H   0  0  0  0  0
    0.8590    4.2340    1.8620 H   0  0  0  0  0
   -0.8330    4.5500    1.4360 H   0  0  0  0  0
   -0.6440    2.5930    2.8930 H   0  0  0  0  0
   -1.2630    2.1230    1.3050 H   0  0  0  0  0
    1.2550    1.3780    2.6770 H   0  0  0  0  0
    4.6020    0.8660   -1.3210 H   0  0  0  0  0
    4.9050   -3.3030   -0.4610 H   0  0  0  0  0
    3.1980   -0.6480    2.4110 H   0  0  0  0  0
  1  2  1  0  0  0
  1 40  1  0  0  0
  1 41  1  0  0  0
  1 42  1  0  0  0
  2  3  1  0  0  0
  3  5  2  0  0  0
  3  4  1  0  0  0
  4 10  2  0  0  0
  4 43  1  0  0  0
  5  8  1  0  0  0
  6  7  1  0  0  0
  6  5  1  0  0  0
  7 44  1  0  0  0
  7 45  1  0  0  0
  7 46  1  0  0  0
  8  9  2  0  0  0
  8 47  1  0  0  0
  9 48  1  0  0  0
 10  9  1  0  0  0
 10 11  1  0  0  0
 11 12  1  0  0  0
 12 49  1  0  0  0
 12 50  1  0  0  0
 13 12  1  0  0  0
 13 51  1  0  0  0
 13 52  1  0  0  0
 14 13  1  0  0  0
 14 17  1  0  0  0
 15 14  1  0  0  0
 16 15  2  0  0  0
 17 53  1  0  0  0
 17 54  1  0  0  0
 18 17  1  0  0  0
 18 19  1  0  0  0
 18 55  1  0  0  0
 19 20  1  0  0  0
 19 21  1  0  0  0
 19 56  1  0  0  0
 20 57  1  0  0  0
 21 22  1  0  0  0
 21 58  1  0  0  0
 21 59  1  0  0  0
 22 60  1  0  0  0
 23 18  1  0  0  0
 23 61  1  0  0  0
 24 23  1  0  0  0
 24 62  1  0  0  0
 24 63  1  0  0  0
 25 24  1  0  0  0
 25 64  1  0  0  0
 25 65  1  0  0  0
 26 25  1  0  0  0
 26 27  1  0  0  0
 26 66  1  0  0  0
 26 67  1  0  0  0
 27 28  1  0  0  0
 27 15  1  0  0  0
 27 68  1  0  0  0
 28 23  1  0  0  0
 29 28  1  0  0  0
 29 32  1  0  0  0
 30 29  2  0  0  0
 31 29  2  0  0  0
 32 33  2  0  0  0
 32 39  1  0  0  0
 33 34  1  0  0  0
 33 69  1  0  0  0
 34 35  1  0  0  0
 34 36  2  0  0  0
 36 70  1  0  0  0
 37 36  1  0  0  0
 37 38  1  0  0  0
 39 37  2  0  0  0
 39 71  1  0  0  0
M  END
$$$$
