3JR
  CCTOOLS-0919241044

 71 74  0  0  1  0  0  0  0  0999 V2000
    6.7650   -0.7740   -3.4860 C   0  0  0  0  0
    7.3870   -1.3450   -2.3330 O   0  0  0  0  0
    6.8220   -1.0690   -1.1270 C   0  0  0  0  0
    5.6940   -0.2680   -1.0560 C   0  0  0  0  0
    7.3720   -1.5970    0.0380 C   0  0  0  0  0
    8.4770   -2.3880   -0.0300 O   0  0  0  0  0
    8.9880   -2.8950    1.2050 C   0  0  0  0  0
    6.7950   -1.3160    1.2650 C   0  0  0  0  0
    5.6730   -0.5120    1.3340 C   0  0  0  0  0
    5.1190    0.0110    0.1750 C   0  0  0  0  0
    4.0150    0.8020    0.2450 O   0  0  0  0  0
    3.4790    1.0520    1.5460 C   0  0  0  0  0
    2.2490    1.9540    1.4250 C   0  0  0  0  0
    1.1840    1.2390    0.6950 N   0  0  0  0  0
    0.3930    0.4210    1.3960 C   0  0  0  0  0
    0.5810    0.3230    2.6020 O   0  0  0  0  0
    1.0700    1.4490   -0.7460 C   0  0  0  0  0
   -0.2500    2.1090   -1.1260 C   0  0  0  0  0
   -0.6120    3.2090   -0.1290 C   0  0  0  0  0
   -1.8940    3.7460   -0.4580 O   0  0  0  0  0
    0.4380    4.3200   -0.1920 C   0  0  0  0  0
    0.1710    5.2870    0.8260 O   0  0  0  0  0
   -1.3750    1.0830   -1.1940 C   0  0  0  0  0
   -1.0660   -0.0140   -2.2040 C   0  0  0  0  0
   -0.9720   -1.3770   -1.5290 C   0  0  0  0  0
   -0.1160   -1.3370   -0.2720 C   0  0  0  0  0
   -0.7120   -0.3810    0.7630 C   0  0  0  0  0
   -1.6710    0.5140    0.1140 N   0  0  0  0  0
   -3.1020    0.8780    0.8690 S   0  0  0  0  0
   -2.8850    0.6740    2.2590 O   0  0  0  0  0
   -3.5410    2.1140    0.3240 O   0  0  0  0  0
   -4.2790   -0.3330    0.3670 C   0  0  0  0  0
   -4.4270   -1.4980    1.0970 C   0  0  0  0  0
   -5.3510   -2.4500    0.7020 C   0  0  0  0  0
   -5.5360   -3.9120    1.6190 CL  0  0  0  0  0
   -6.1270   -2.2350   -0.4220 C   0  0  0  0  0
   -5.9790   -1.0690   -1.1520 C   0  0  0  0  0
   -6.9530   -0.7990   -2.5630 CL  0  0  0  0  0
   -5.0590   -0.1160   -0.7540 C   0  0  0  0  0
    5.7370   -1.1280   -3.5570 H   0  0  0  0  0
    6.7700    0.3120   -3.4010 H   0  0  0  0  0
    7.3140   -1.0720   -4.3790 H   0  0  0  0  0
    5.2630    0.1390   -1.9590 H   0  0  0  0  0
    9.8680   -3.5090    1.0090 H   0  0  0  0  0
    9.2630   -2.0630    1.8530 H   0  0  0  0  0
    8.2240   -3.5000    1.6930 H   0  0  0  0  0
    7.2220   -1.7260    2.1680 H   0  0  0  0  0
    5.2230   -0.2940    2.2920 H   0  0  0  0  0
    3.1930    0.1080    2.0090 H   0  0  0  0  0
    4.2320    1.5450    2.1610 H   0  0  0  0  0
    1.8920    2.2170    2.4210 H   0  0  0  0  0
    2.5150    2.8610    0.8830 H   0  0  0  0  0
    1.8940    2.1030   -1.0690 H   0  0  0  0  0
    1.1810    0.5040   -1.2770 H   0  0  0  0  0
   -0.1400    2.5650   -2.1190 H   0  0  0  0  0
   -0.6390    2.7920    0.8780 H   0  0  0  0  0
   -1.9430    4.1350   -1.3420 H   0  0  0  0  0
    1.4290    3.8940   -0.0370 H   0  0  0  0  0
    0.3990    4.8020   -1.1690 H   0  0  0  0  0
    0.7990    6.0220    0.8450 H   0  0  0  0  0
   -2.2740    1.6020   -1.5400 H   0  0  0  0  0
   -1.8620   -0.0420   -2.9510 H   0  0  0  0  0
   -0.1230    0.2080   -2.7010 H   0  0  0  0  0
   -1.9760   -1.7130   -1.2650 H   0  0  0  0  0
   -0.5380   -2.0910   -2.2310 H   0  0  0  0  0
   -0.0810   -2.3450    0.1580 H   0  0  0  0  0
    0.8990   -1.0400   -0.5210 H   0  0  0  0  0
   -1.2320   -0.9640    1.5390 H   0  0  0  0  0
   -3.8200   -1.6650    1.9750 H   0  0  0  0  0
   -6.8450   -2.9800   -0.7330 H   0  0  0  0  0
   -4.9430    0.7940   -1.3230 H   0  0  0  0  0
  1 40  1  0  0  0
  1 41  1  0  0  0
  1 42  1  0  0  0
  2  1  1  0  0  0
  3  2  1  0  0  0
  4  3  2  0  0  0
  4 43  1  0  0  0
  5  3  1  0  0  0
  5  6  1  0  0  0
  7  6  1  0  0  0
  7 44  1  0  0  0
  7 45  1  0  0  0
  7 46  1  0  0  0
  8  5  2  0  0  0
  8 47  1  0  0  0
  9 10  2  0  0  0
  9  8  1  0  0  0
  9 48  1  0  0  0
 10  4  1  0  0  0
 11 10  1  0  0  0
 12 13  1  0  0  0
 12 11  1  0  0  0
 12 49  1  0  0  0
 12 50  1  0  0  0
 13 14  1  0  0  0
 13 51  1  0  0  0
 13 52  1  0  0  0
 14 15  1  0  0  0
 15 16  2  0  0  0
 15 27  1  0  0  0
 17 18  1  0  0  0
 17 14  1  0  0  0
 17 53  1  0  0  0
 17 54  1  0  0  0
 18 23  1  0  0  0
 18 55  1  0  0  0
 19 18  1  0  0  0
 19 56  1  0  0  0
 20 19  1  0  0  0
 20 57  1  0  0  0
 21 19  1  0  0  0
 21 58  1  0  0  0
 21 59  1  0  0  0
 22 21  1  0  0  0
 22 60  1  0  0  0
 23 28  1  0  0  0
 23 24  1  0  0  0
 23 61  1  0  0  0
 24 25  1  0  0  0
 24 62  1  0  0  0
 24 63  1  0  0  0
 25 26  1  0  0  0
 25 64  1  0  0  0
 25 65  1  0  0  0
 26 66  1  0  0  0
 26 67  1  0  0  0
 27 26  1  0  0  0
 27 68  1  0  0  0
 28 29  1  0  0  0
 28 27  1  0  0  0
 29 31  2  0  0  0
 29 30  2  0  0  0
 32 29  1  0  0  0
 33 32  1  0  0  0
 33 69  1  0  0  0
 34 33  2  0  0  0
 35 34  1  0  0  0
 36 37  2  0  0  0
 36 34  1  0  0  0
 36 70  1  0  0  0
 37 39  1  0  0  0
 38 37  1  0  0  0
 39 32  2  0  0  0
 39 71  1  0  0  0
M  END
$$$$
