3MY
  CCTOOLS-1004241128

 24 24  0  0  1  0  0  0  0  0999 V2000
    3.8900   -1.1590   -0.2940 O   0  0  0  0  0
    2.5880   -0.8910   -0.0090 C   0  0  0  0  0
    2.1470    0.4230    0.0580 C   0  0  0  0  0
    0.8220    0.6920    0.3480 C   0  0  0  0  0
    3.2580    1.7280   -0.2200 CL  0  0  0  0  0
    1.6970   -1.9310    0.2090 C   0  0  0  0  0
    0.3740   -1.6570    0.4980 C   0  0  0  0  0
   -0.0620   -0.3470    0.5700 C   0  0  0  0  0
   -1.5060   -0.0510    0.8860 C   0  0  0  0  0
   -2.3090    0.0150   -0.4140 C   0  0  0  0  0
   -3.7250    0.4310   -0.1090 C   0  0  0  0  0
   -4.6000   -0.4000   -0.0500 O   0  0  0  0  0
   -2.3140   -1.3070   -1.0550 N   0  0  0  0  0
   -4.0150    1.7260    0.0970 O   0  0  0  0  0
    4.4600   -1.2160    0.4850 H   0  0  0  0  0
    2.0370   -2.9550    0.1530 H   0  0  0  0  0
    0.4780    1.7140    0.4000 H   0  0  0  0  0
   -0.3200   -2.4670    0.6680 H   0  0  0  0  0
   -1.9080   -0.8410    1.5210 H   0  0  0  0  0
   -1.5760    0.9040    1.4060 H   0  0  0  0  0
   -1.8530    0.7430   -1.0860 H   0  0  0  0  0
   -1.3820   -1.5800   -1.3280 H   0  0  0  0  0
   -2.7320   -1.9990   -0.4510 H   0  0  0  0  0
   -4.9370    1.9440    0.2890 H   0  0  0  0  0
  1  2  1  0  0  0
  1 15  1  0  0  0
  2  3  1  0  0  0
  2  6  2  0  0  0
  3  4  2  0  0  0
  3  5  1  0  0  0
  4  8  1  0  0  0
  4 17  1  0  0  0
  6  7  1  0  0  0
  6 16  1  0  0  0
  7  8  2  0  0  0
  7 18  1  0  0  0
  8  9  1  0  0  0
  9 10  1  0  0  0
  9 19  1  0  0  0
  9 20  1  0  0  0
 10 11  1  0  0  0
 10 13  1  0  0  0
 10 21  1  0  0  0
 11 12  2  0  0  0
 11 14  1  0  0  0
 13 22  1  0  0  0
 13 23  1  0  0  0
 14 24  1  0  0  0
M  END
$$$$
