3NM
  CCTOOLS-0919241027

 26 26  0  0  0  0  0  0  0  0999 V2000
    2.8530   -1.1690    0.1860 N   0  0  0  0  0
   -4.0270    0.2640    0.2660 P   0  0  0  0  0
    2.0160    1.0330   -0.6780 S   0  0  0  0  0
    0.9940   -2.7540   -0.1360 C   0  0  0  0  0
    4.9170    1.7050    0.2690 O   0  0  0  0  0
    1.6340   -1.3920   -0.2270 C   0  0  0  0  0
    5.5100   -0.3090    0.9930 O   0  0  0  0  0
    3.2860    0.0560    0.0500 C   0  0  0  0  0
   -2.7370   -0.0330   -0.6500 O   0  0  0  0  0
    4.6190    0.5400    0.4420 C   0  0  0  0  0
   -3.8630    1.5710    0.9400 O   0  0  0  0  0
    0.9860   -0.3320   -0.7360 C   0  0  0  0  0
   -5.3450    0.2980   -0.6580 O   0  0  0  0  0
   -0.4220   -0.3430   -1.2730 C   0  0  0  0  0
   -4.1770   -0.8950    1.3730 O   0  0  0  0  0
   -1.4010   -0.0230   -0.1410 C   0  0  0  0  0
    0.4820   -2.8520    0.8220 H   0  0  0  0  0
    0.2750   -2.8720   -0.9460 H   0  0  0  0  0
    1.7630   -3.5220   -0.2170 H   0  0  0  0  0
    6.3720    0.0550    1.2340 H   0  0  0  0  0
   -6.1620    0.4720   -0.1710 H   0  0  0  0  0
   -0.5170    0.4070   -2.0590 H   0  0  0  0  0
   -0.6480   -1.3280   -1.6810 H   0  0  0  0  0
   -4.2880   -1.7810    1.0020 H   0  0  0  0  0
   -1.1760    0.9630    0.2660 H   0  0  0  0  0
   -1.3060   -0.7720    0.6440 H   0  0  0  0  0
  1  6  1  0  0  0
  2  9  1  0  0  0
  2 13  1  0  0  0
  3 12  1  0  0  0
  4 17  1  0  0  0
  4 18  1  0  0  0
  4 19  1  0  0  0
  5 10  2  0  0  0
  6  4  1  0  0  0
  7 10  1  0  0  0
  7 20  1  0  0  0
  8  1  2  0  0  0
  8  3  1  0  0  0
 10  8  1  0  0  0
 11  2  2  0  0  0
 12  6  2  0  0  0
 12 14  1  0  0  0
 13 21  1  0  0  0
 14 22  1  0  0  0
 14 23  1  0  0  0
 15  2  1  0  0  0
 15 24  1  0  0  0
 16  9  1  0  0  0
 16 14  1  0  0  0
 16 25  1  0  0  0
 16 26  1  0  0  0
M  END
$$$$
