3OM
  CCTOOLS-0919241027

 25 24  0  0  1  0  0  0  0  0999 V2000
    3.9300    0.3200    0.4410 C   0  0  0  0  0
    1.8910   -1.3500    0.1720 O   0  0  0  0  0
    2.9020    0.7880   -0.2230 C   0  0  0  0  0
    1.7120   -0.0970   -0.4910 C   0  0  0  0  0
    0.4450    0.5810    0.0320 C   0  0  0  0  0
   -0.7770   -0.2580   -0.3500 C   0  0  0  0  0
   -2.0450    0.4200    0.1730 C   0  0  0  0  0
   -3.2660   -0.4180   -0.2100 C   0  0  0  0  0
   -4.5340    0.2590    0.3130 C   0  0  0  0  0
    4.7830    0.9540    0.6340 H   0  0  0  0  0
    3.9230   -0.6990    0.8000 H   0  0  0  0  0
    1.9820   -1.2770    1.1320 H   0  0  0  0  0
    2.9080    1.8080   -0.5780 H   0  0  0  0  0
    1.6190   -0.2640   -1.5640 H   0  0  0  0  0
    0.5000    0.6680    1.1170 H   0  0  0  0  0
    0.3560    1.5740   -0.4080 H   0  0  0  0  0
   -0.8330   -0.3450   -1.4360 H   0  0  0  0  0
   -0.6880   -1.2510    0.0890 H   0  0  0  0  0
   -1.9890    0.5070    1.2580 H   0  0  0  0  0
   -2.1340    1.4130   -0.2670 H   0  0  0  0  0
   -3.3220   -0.5050   -1.2950 H   0  0  0  0  0
   -3.1770   -1.4120    0.2300 H   0  0  0  0  0
   -5.4040   -0.3380    0.0410 H   0  0  0  0  0
   -4.4780    0.3460    1.3990 H   0  0  0  0  0
   -4.6230    1.2530   -0.1260 H   0  0  0  0  0
  1  3  2  0  0  0
  1 10  1  0  0  0
  1 11  1  0  0  0
  2  4  1  0  0  0
  2 12  1  0  0  0
  3  4  1  0  0  0
  3 13  1  0  0  0
  4  5  1  0  0  0
  4 14  1  0  0  0
  5  6  1  0  0  0
  5 15  1  0  0  0
  5 16  1  0  0  0
  6  7  1  0  0  0
  6 17  1  0  0  0
  6 18  1  0  0  0
  7  8  1  0  0  0
  7 19  1  0  0  0
  7 20  1  0  0  0
  8  9  1  0  0  0
  8 21  1  0  0  0
  8 22  1  0  0  0
  9 23  1  0  0  0
  9 24  1  0  0  0
  9 25  1  0  0  0
M  END
$$$$
