3PG
  CCTOOLS-0919241027

 18 17  0  0  1  0  0  0  0  0999 V2000
   -0.3020    0.0060   -2.8520 C   0  0  0  0  0
    0.2850   -0.6330   -3.6920 O   0  0  0  0  0
   -1.6250    0.2020   -2.9640 O   0  0  0  0  0
    0.4480    0.5820   -1.6800 C   0  0  0  0  0
    1.8310    0.2390   -1.7850 O   0  0  0  0  0
   -0.1210    0.0120   -0.3790 C   0  0  0  0  0
    0.5900    0.5590    0.7310 O   0  0  0  0  0
   -0.0570   -0.0790    2.0590 P   0  0  0  0  0
    0.0830   -1.5520    2.0180 O   0  0  0  0  0
    0.7010    0.4950    3.3570 O   0  0  0  0  0
   -1.6180    0.3070    2.1340 O   0  0  0  0  0
   -2.1070   -0.1670   -3.7170 H   0  0  0  0  0
    0.3420    1.6670   -1.6790 H   0  0  0  0  0
    1.8800   -0.7260   -1.7830 H   0  0  0  0  0
   -1.1760    0.2740   -0.2990 H   0  0  0  0  0
   -0.0150   -1.0720   -0.3810 H   0  0  0  0  0
    0.2830    0.0880    4.1290 H   0  0  0  0  0
   -1.6660    1.2730    2.1600 H   0  0  0  0  0
  1  2  2  0  0  0
  1  3  1  0  0  0
  1  4  1  0  0  0
  3 12  1  0  0  0
  4  5  1  0  0  0
  4  6  1  0  0  0
  4 13  1  0  0  0
  5 14  1  0  0  0
  6  7  1  0  0  0
  6 15  1  0  0  0
  6 16  1  0  0  0
  7  8  1  0  0  0
  8  9  2  0  0  0
  8 10  1  0  0  0
  8 11  1  0  0  0
 10 17  1  0  0  0
 11 18  1  0  0  0
M  END
$$$$
