3QZ
  CCTOOLS-0919241027

 54 57  0  0  1  0  0  0  0  0999 V2000
    4.8300    1.9830    0.1280 C   0  0  0  0  0
   -1.9390    0.6930    1.8630 C   0  0  0  0  0
    1.9530    0.3670    1.3990 C   0  0  0  0  0
    4.8320   -0.0530    1.3130 O   0  0  0  0  0
   -6.0530    0.3130   -1.0190 O   0  0  0  0  0
    3.6210    0.3560   -1.9020 O   0  0  0  0  0
   -4.3070   -0.9120   -0.0450 C   0  0  0  0  0
   -2.3170   -2.1580    0.6280 C   0  0  0  0  0
   -4.4660    1.6050    0.2150 C   0  0  0  0  0
   -0.9990   -2.2140   -0.1470 C   0  0  0  0  0
   -0.1090    1.5300   -0.1800 C   0  0  0  0  0
    2.0960   -2.1770   -0.0940 C   0  0  0  0  0
   -2.9710    1.6330   -0.1710 C   0  0  0  0  0
    1.3150    1.4110   -0.7730 C   0  0  0  0  0
    3.5390   -1.6350   -0.4840 C   0  0  0  0  0
    4.3930    0.5620    0.3710 C   0  0  0  0  0
   -5.0410    0.3210   -0.3500 C   0  0  0  0  0
   -3.0210   -0.8540    0.2990 C   0  0  0  0  0
   -0.1710   -0.9670    0.1750 C   0  0  0  0  0
   -0.9150    0.2470   -0.3590 C   0  0  0  0  0
    1.1660   -1.0430   -0.5400 C   0  0  0  0  0
   -2.2440    0.4240    0.3880 C   0  0  0  0  0
    1.9800    0.2130   -0.1230 C   0  0  0  0  0
    3.4080   -0.0940   -0.5620 C   0  0  0  0  0
    5.5390    2.2820    0.9000 H   0  0  0  0  0
    5.3060    2.0550   -0.8500 H   0  0  0  0  0
    3.9610    2.6410    0.1590 H   0  0  0  0  0
   -2.8730    0.8530    2.4030 H   0  0  0  0  0
   -1.4160   -0.1630    2.2880 H   0  0  0  0  0
   -1.3130    1.5810    1.9490 H   0  0  0  0  0
    0.9230    0.4820    1.7340 H   0  0  0  0  0
    2.3890   -0.5190    1.8610 H   0  0  0  0  0
    2.5290    1.2470    1.6850 H   0  0  0  0  0
    4.5070    0.1700   -2.2430 H   0  0  0  0  0
   -4.8100   -1.8670   -0.0940 H   0  0  0  0  0
   -2.9490   -2.9970    0.3370 H   0  0  0  0  0
   -2.1140   -2.2040    1.6980 H   0  0  0  0  0
   -4.5700    1.6410    1.2990 H   0  0  0  0  0
   -4.9810    2.4540   -0.2360 H   0  0  0  0  0
   -0.4430   -3.1060    0.1440 H   0  0  0  0  0
   -1.2070   -2.2480   -1.2170 H   0  0  0  0  0
   -0.0170    1.7460    0.8840 H   0  0  0  0  0
   -0.6380    2.3520   -0.6640 H   0  0  0  0  0
    1.8780   -3.1070   -0.6180 H   0  0  0  0  0
    2.0150   -2.3150    0.9840 H   0  0  0  0  0
   -2.8850    1.6620   -1.2570 H   0  0  0  0  0
   -2.5140    2.5320    0.2440 H   0  0  0  0  0
    1.2570    1.2340   -1.8470 H   0  0  0  0  0
    1.8760    2.3250   -0.5760 H   0  0  0  0  0
    4.2630   -1.9150    0.2800 H   0  0  0  0  0
    3.8410   -2.0390   -1.4510 H   0  0  0  0  0
   -0.0150   -0.8910    1.2510 H   0  0  0  0  0
   -1.1180    0.1000   -1.4200 H   0  0  0  0  0
    1.0180   -1.0750   -1.6190 H   0  0  0  0  0
  1 25  1  0  0  0
  1 26  1  0  0  0
  1 27  1  0  0  0
  2 22  1  0  0  0
  2 28  1  0  0  0
  2 29  1  0  0  0
  2 30  1  0  0  0
  3 23  1  0  0  0
  3 31  1  0  0  0
  3 32  1  0  0  0
  3 33  1  0  0  0
  4 16  2  0  0  0
  6 34  1  0  0  0
  7 18  2  0  0  0
  7 35  1  0  0  0
  8 10  1  0  0  0
  8 36  1  0  0  0
  8 37  1  0  0  0
  9 13  1  0  0  0
  9 17  1  0  0  0
  9 38  1  0  0  0
  9 39  1  0  0  0
 10 40  1  0  0  0
 10 41  1  0  0  0
 11 20  1  0  0  0
 11 14  1  0  0  0
 11 42  1  0  0  0
 11 43  1  0  0  0
 12 15  1  0  0  0
 12 44  1  0  0  0
 12 45  1  0  0  0
 13 22  1  0  0  0
 13 46  1  0  0  0
 13 47  1  0  0  0
 14 23  1  0  0  0
 14 48  1  0  0  0
 14 49  1  0  0  0
 15 50  1  0  0  0
 15 51  1  0  0  0
 16  1  1  0  0  0
 16 24  1  0  0  0
 17  5  2  0  0  0
 17  7  1  0  0  0
 18  8  1  0  0  0
 19 10  1  0  0  0
 19 21  1  0  0  0
 19 52  1  0  0  0
 20 19  1  0  0  0
 20 53  1  0  0  0
 21 12  1  0  0  0
 21 54  1  0  0  0
 22 18  1  0  0  0
 22 20  1  0  0  0
 23 21  1  0  0  0
 23 24  1  0  0  0
 24  6  1  0  0  0
 24 15  1  0  0  0
M  END
$$$$
