3SN
  CCTOOLS-0919241027

 59 62  0  0  0  0  0  0  0  0999 V2000
    0.4200    1.5830    0.6460 C   0  0  0  0  0
    5.3990   -1.7420    0.4160 C   0  0  0  0  0
    3.9100   -1.3990    0.3090 C   0  0  0  0  0
    1.4180   -0.8040    1.6360 C   0  0  0  0  0
    4.3710    0.9810    0.3820 C   0  0  0  0  0
    5.8800    0.7360    0.4920 C   0  0  0  0  0
    2.2800    0.1290    1.0750 C   0  0  0  0  0
    0.0630   -0.5410    1.7010 C   0  0  0  0  0
   -0.4360    0.6490    1.2060 C   0  0  0  0  0
    7.9300    0.4420   -1.4750 C   0  0  0  0  0
    7.1430   -0.7500   -0.9950 C   0  0  0  0  0
    7.3770   -1.8520   -1.4440 O   0  0  0  0  0
    6.1790   -0.5910   -0.0660 N   0  0  0  0  0
    3.6500   -0.1340    1.0100 N   0  0  0  0  0
    1.7770    1.3250    0.5790 C   0  0  0  0  0
   -0.0720    2.7430    0.1590 F   0  0  0  0  0
   -1.9150    0.9320    1.2780 C   0  0  0  0  0
   -2.5000    0.8120   -0.0600 N   0  0  0  0  0
   -3.0390    1.9960   -0.7320 C   0  0  0  0  0
   -4.2900    2.5760   -0.0500 C   0  0  0  0  0
   -3.7080    3.9690   -0.3430 C   0  0  0  0  0
   -2.3210    3.3010   -0.3510 C   0  0  0  0  0
   -2.5530   -0.6630   -0.8120 S   0  0  0  0  0
   -2.6310   -0.4000   -2.2060 O   0  0  0  0  0
   -1.5230   -1.4490   -0.2260 O   0  0  0  0  0
   -4.0770   -1.4240   -0.3620 C   0  0  0  0  0
   -5.2050   -1.2200   -1.1340 C   0  0  0  0  0
   -6.4010   -1.8170   -0.7810 C   0  0  0  0  0
   -6.4690   -2.6170    0.3440 C   0  0  0  0  0
   -5.3400   -2.8210    1.1160 C   0  0  0  0  0
   -4.1430   -2.2290    0.7600 C   0  0  0  0  0
    5.6540   -1.9470    1.4560 H   0  0  0  0  0
    5.6190   -2.6160   -0.1970 H   0  0  0  0  0
    3.6350   -1.2960   -0.7410 H   0  0  0  0  0
    3.3200   -2.1950    0.7630 H   0  0  0  0  0
    1.8060   -1.7350    2.0220 H   0  0  0  0  0
    4.1160    1.9110    0.8900 H   0  0  0  0  0
    4.0900    1.0510   -0.6690 H   0  0  0  0  0
    6.4170    1.4990   -0.0700 H   0  0  0  0  0
    6.1810    0.7690    1.5390 H   0  0  0  0  0
   -0.6070   -1.2680    2.1370 H   0  0  0  0  0
    8.6590    0.1210   -2.2190 H   0  0  0  0  0
    7.2520    1.1700   -1.9210 H   0  0  0  0  0
    8.4490    0.8990   -0.6320 H   0  0  0  0  0
    2.4450    2.0530    0.1420 H   0  0  0  0  0
   -2.3900    0.2150    1.9480 H   0  0  0  0  0
   -2.0740    1.9420    1.6550 H   0  0  0  0  0
   -3.1530    1.8580   -1.8070 H   0  0  0  0  0
   -5.2160    2.3680   -0.5870 H   0  0  0  0  0
   -4.3550    2.3440    1.0130 H   0  0  0  0  0
   -4.0040    4.3710   -1.3120 H   0  0  0  0  0
   -3.8480    4.6800    0.4710 H   0  0  0  0  0
   -1.8460    3.2680    0.6290 H   0  0  0  0  0
   -1.6590    3.6780   -1.1310 H   0  0  0  0  0
   -5.1530   -0.5940   -2.0130 H   0  0  0  0  0
   -7.2830   -1.6570   -1.3840 H   0  0  0  0  0
   -7.4030   -3.0830    0.6200 H   0  0  0  0  0
   -5.3920   -3.4500    1.9920 H   0  0  0  0  0
   -3.2610   -2.3890    1.3630 H   0  0  0  0  0
  1  9  1  0  0  0
  2 13  1  0  0  0
  2  3  1  0  0  0
  2 32  1  0  0  0
  2 33  1  0  0  0
  3 34  1  0  0  0
  3 35  1  0  0  0
  4  8  1  0  0  0
  4 36  1  0  0  0
  5 37  1  0  0  0
  5 38  1  0  0  0
  6  5  1  0  0  0
  6 13  1  0  0  0
  6 39  1  0  0  0
  6 40  1  0  0  0
  7  4  2  0  0  0
  8 41  1  0  0  0
  9 17  1  0  0  0
  9  8  2  0  0  0
 10 42  1  0  0  0
 10 43  1  0  0  0
 10 44  1  0  0  0
 11 10  1  0  0  0
 11 12  2  0  0  0
 13 11  1  0  0  0
 14  7  1  0  0  0
 14  5  1  0  0  0
 14  3  1  0  0  0
 15  1  2  0  0  0
 15  7  1  0  0  0
 15 45  1  0  0  0
 16  1  1  0  0  0
 17 18  1  0  0  0
 17 46  1  0  0  0
 17 47  1  0  0  0
 18 23  1  0  0  0
 18 19  1  0  0  0
 19 48  1  0  0  0
 20 19  1  0  0  0
 20 21  1  0  0  0
 20 49  1  0  0  0
 20 50  1  0  0  0
 21 51  1  0  0  0
 21 52  1  0  0  0
 22 19  1  0  0  0
 22 21  1  0  0  0
 22 53  1  0  0  0
 22 54  1  0  0  0
 23 25  2  0  0  0
 24 23  2  0  0  0
 26 23  1  0  0  0
 26 27  2  0  0  0
 27 55  1  0  0  0
 28 27  1  0  0  0
 28 56  1  0  0  0
 29 28  2  0  0  0
 29 57  1  0  0  0
 30 31  2  0  0  0
 30 29  1  0  0  0
 30 58  1  0  0  0
 31 26  1  0  0  0
 31 59  1  0  0  0
M  END
$$$$
