3SX
  CCTOOLS-0919241027

 64 66  0  0  0  0  0  0  0  0999 V2000
    2.3430    2.7030    0.2800 C   0  0  0  0  0
   -4.1420   -1.1880   -0.6050 C   0  0  0  0  0
    1.3020    0.9860    1.8300 C   0  0  0  0  0
   -2.2300    1.6690    0.6860 C   0  0  0  0  0
   -0.0870    0.7820    1.2810 C   0  0  0  0  0
   -0.4890   -0.4770    0.8730 C   0  0  0  0  0
   -1.7610   -0.6680    0.3700 C   0  0  0  0  0
   -2.6370    0.4060    0.2740 C   0  0  0  0  0
   -0.9560    1.8530    1.1870 C   0  0  0  0  0
    1.3000    4.4890   -1.1220 C   0  0  0  0  0
    1.4570    2.1520   -1.9900 C   0  0  0  0  0
    1.2450    3.0090   -0.7400 C   0  0  0  0  0
    2.2160    1.3160    0.7340 N   0  0  0  0  0
   -3.9240    0.2170   -0.2330 N   0  0  0  0  0
   -5.4900   -1.3200   -1.3210 C   0  0  0  0  0
   -6.5330   -0.7340   -0.4650 N   0  0  0  0  0
   -6.3210    0.6230    0.0600 C   0  0  0  0  0
   -4.9400    0.6790    0.7220 C   0  0  0  0  0
   -7.6540   -1.4230   -0.1700 C   0  0  0  0  0
   -8.4570   -0.9660    0.6150 O   0  0  0  0  0
   -7.9070   -2.7610   -0.8150 C   0  0  0  0  0
    3.1060    0.1230    0.0090 S   0  0  0  0  0
    2.3400   -1.0570    0.2120 O   0  0  0  0  0
    3.3560    0.6170   -1.2990 O   0  0  0  0  0
    4.6430    0.0570    0.9700 C   0  0  0  0  0
    5.5470   -1.0060    0.3990 C   0  0  0  0  0
    5.4660   -2.3050    0.8650 C   0  0  0  0  0
    6.2940   -3.2800    0.3420 C   0  0  0  0  0
    7.2040   -2.9560   -0.6470 C   0  0  0  0  0
    7.2840   -1.6570   -1.1140 C   0  0  0  0  0
    6.4520   -0.6830   -0.5940 C   0  0  0  0  0
    3.3190    2.8450   -0.1840 H   0  0  0  0  0
    2.2450    3.3760    1.1320 H   0  0  0  0  0
   -3.3430   -1.5160   -1.2700 H   0  0  0  0  0
   -4.1440   -1.8050    0.2930 H   0  0  0  0  0
    1.2910    1.8020    2.5530 H   0  0  0  0  0
    1.6370    0.0720    2.3200 H   0  0  0  0  0
   -2.9060    2.5070    0.6080 H   0  0  0  0  0
    0.1920   -1.3120    0.9480 H   0  0  0  0  0
   -2.0740   -1.6510    0.0510 H   0  0  0  0  0
   -0.6390    2.8350    1.5070 H   0  0  0  0  0
    0.5170    4.7070   -1.8480 H   0  0  0  0  0
    1.1490    5.1000   -0.2310 H   0  0  0  0  0
    2.2730    4.7160   -1.5570 H   0  0  0  0  0
    1.4170    1.0970   -1.7190 H   0  0  0  0  0
    0.6740    2.3700   -2.7170 H   0  0  0  0  0
    2.4300    2.3790   -2.4260 H   0  0  0  0  0
    0.2710    2.7820   -0.3050 H   0  0  0  0  0
   -5.4540   -0.7870   -2.2710 H   0  0  0  0  0
   -5.7100   -2.3730   -1.4970 H   0  0  0  0  0
   -6.3650    1.3430   -0.7570 H   0  0  0  0  0
   -7.0900    0.8550    0.7980 H   0  0  0  0  0
   -4.9320    0.0350    1.6020 H   0  0  0  0  0
   -4.7200    1.7040    1.0190 H   0  0  0  0  0
   -7.5530   -3.5550   -0.1570 H   0  0  0  0  0
   -8.9760   -2.8830   -0.9890 H   0  0  0  0  0
   -7.3760   -2.8120   -1.7650 H   0  0  0  0  0
    5.1440    1.0240    0.9200 H   0  0  0  0  0
    4.4130   -0.1810    2.0080 H   0  0  0  0  0
    4.7550   -2.5580    1.6380 H   0  0  0  0  0
    6.2320   -4.2940    0.7070 H   0  0  0  0  0
    7.8520   -3.7170   -1.0550 H   0  0  0  0  0
    7.9950   -1.4040   -1.8870 H   0  0  0  0  0
    6.5130    0.3310   -0.9610 H   0  0  0  0  0
  1 13  1  0  0  0
  1 32  1  0  0  0
  1 33  1  0  0  0
  2 14  1  0  0  0
  2 34  1  0  0  0
  2 35  1  0  0  0
  3 36  1  0  0  0
  3 37  1  0  0  0
  4  9  2  0  0  0
  4  8  1  0  0  0
  4 38  1  0  0  0
  5  3  1  0  0  0
  5  6  2  0  0  0
  6 39  1  0  0  0
  7  6  1  0  0  0
  7 40  1  0  0  0
  8  7  2  0  0  0
  9  5  1  0  0  0
  9 41  1  0  0  0
 10 42  1  0  0  0
 10 43  1  0  0  0
 10 44  1  0  0  0
 11 12  1  0  0  0
 11 45  1  0  0  0
 11 46  1  0  0  0
 11 47  1  0  0  0
 12 10  1  0  0  0
 12  1  1  0  0  0
 12 48  1  0  0  0
 13  3  1  0  0  0
 13 22  1  0  0  0
 14  8  1  0  0  0
 14 18  1  0  0  0
 15  2  1  0  0  0
 15 16  1  0  0  0
 15 49  1  0  0  0
 15 50  1  0  0  0
 16 17  1  0  0  0
 17 18  1  0  0  0
 17 51  1  0  0  0
 17 52  1  0  0  0
 18 53  1  0  0  0
 18 54  1  0  0  0
 19 21  1  0  0  0
 19 16  1  0  0  0
 20 19  2  0  0  0
 21 55  1  0  0  0
 21 56  1  0  0  0
 21 57  1  0  0  0
 22 25  1  0  0  0
 22 23  2  0  0  0
 24 22  2  0  0  0
 25 26  1  0  0  0
 25 58  1  0  0  0
 25 59  1  0  0  0
 26 31  1  0  0  0
 27 26  2  0  0  0
 27 28  1  0  0  0
 27 60  1  0  0  0
 28 29  2  0  0  0
 28 61  1  0  0  0
 29 30  1  0  0  0
 29 62  1  0  0  0
 30 63  1  0  0  0
 31 30  2  0  0  0
 31 64  1  0  0  0
M  END
$$$$
