3TI
  CCTOOLS-0919241028

 33 35  0  0  0  0  0  0  0  0999 V2000
    1.0780   -0.7990   -0.0730 N   0  0  0  0  0
    2.3660   -0.3400   -0.0380 C   0  0  0  0  0
    3.3160   -0.9800    0.7610 C   0  0  0  0  0
    4.6130   -0.5130    0.7930 C   0  0  0  0  0
    4.9750    0.5900    0.0320 C   0  0  0  0  0
    4.0340    1.2300   -0.7640 C   0  0  0  0  0
    2.7360    0.7660   -0.8070 C   0  0  0  0  0
    0.0820    0.0420    0.0020 C   0  0  0  0  0
   -1.2980   -0.4500   -0.0350 C   0  0  0  0  0
   -1.5660   -1.8160   -0.1450 C   0  0  0  0  0
   -2.8820   -2.2770   -0.1810 C   0  0  0  0  0
   -3.9400   -1.4270   -0.1100 C   0  0  0  0  0
   -3.7430   -0.0380    0.0030 C   0  0  0  0  0
   -2.4250    0.4790    0.0480 C   0  0  0  0  0
   -2.2270    1.8590    0.1660 C   0  0  0  0  0
   -3.3060    2.6910    0.2400 C   0  0  0  0  0
   -4.6020    2.1850    0.2010 C   0  0  0  0  0
   -4.8300    0.8480    0.0760 C   0  0  0  0  0
    6.2550    1.0470    0.0670 O   0  0  0  0  0
   -0.5400   -2.7010   -0.2190 O   0  0  0  0  0
    3.0360   -1.8380    1.3540 H   0  0  0  0  0
    5.3480   -1.0070    1.4110 H   0  0  0  0  0
    4.3200    2.0880   -1.3540 H   0  0  0  0  0
    2.0060    1.2610   -1.4300 H   0  0  0  0  0
    0.2760    1.1010    0.0920 H   0  0  0  0  0
   -3.0650   -3.3380   -0.2670 H   0  0  0  0  0
   -4.9440   -1.8220   -0.1410 H   0  0  0  0  0
   -1.2260    2.2630    0.1970 H   0  0  0  0  0
   -3.1520    3.7560    0.3310 H   0  0  0  0  0
   -5.4400    2.8640    0.2620 H   0  0  0  0  0
   -5.8410    0.4700    0.0470 H   0  0  0  0  0
    6.8330    0.6460   -0.5960 H   0  0  0  0  0
   -0.2410   -3.0290    0.6400 H   0  0  0  0  0
  1  8  2  0  0  0
  1  2  1  0  0  0
  2  3  2  0  0  0
  2  7  1  0  0  0
  3  4  1  0  0  0
  3 21  1  0  0  0
  4  5  2  0  0  0
  4 22  1  0  0  0
  5 19  1  0  0  0
  6  5  1  0  0  0
  6 23  1  0  0  0
  7  6  2  0  0  0
  7 24  1  0  0  0
  8 25  1  0  0  0
  9  8  1  0  0  0
  9 14  1  0  0  0
 10  9  2  0  0  0
 11 10  1  0  0  0
 11 12  2  0  0  0
 11 26  1  0  0  0
 12 13  1  0  0  0
 12 27  1  0  0  0
 13 18  2  0  0  0
 13 14  1  0  0  0
 14 15  2  0  0  0
 15 16  1  0  0  0
 15 28  1  0  0  0
 16 29  1  0  0  0
 17 16  2  0  0  0
 17 30  1  0  0  0
 18 17  1  0  0  0
 18 31  1  0  0  0
 19 32  1  0  0  0
 20 10  1  0  0  0
 20 33  1  0  0  0
M  END
$$$$
