3TS
  CCTOOLS-0919241028

100104  0  0  1  0  0  0  0  0999 V2000
    1.5570   -1.6160    1.8770 C   0  0  0  0  0
    1.2710   -1.9030    0.5060 O   0  0  0  0  0
    1.3930   -0.1150    2.1290 C   0  0  0  0  0
    0.0310    0.2980    1.7670 N   0  0  0  0  0
    2.4060    0.6520    1.2730 C   0  0  0  0  0
    2.3100    2.0490    1.5560 O   0  0  0  0  0
    3.8170    0.1570    1.6040 C   0  0  0  0  0
    4.7640    0.8140    0.7600 O   0  0  0  0  0
    3.8870   -1.3550    1.3720 C   0  0  0  0  0
    2.8990   -2.0050    2.1750 O   0  0  0  0  0
    5.2760   -1.8660    1.7580 C   0  0  0  0  0
    5.5550   -1.5100    3.1140 O   0  0  0  0  0
    7.6580    3.8990   -0.5880 C   0  0  0  0  0
    8.6270    1.7940   -1.1970 C   0  0  0  0  0
    6.8220    3.2560    0.3050 C   0  0  0  0  0
    7.7900    1.1510   -0.3030 C   0  0  0  0  0
    5.9770    1.1810    1.4210 C   0  0  0  0  0
    8.5610    3.1680   -1.3390 C   0  0  0  0  0
    6.8880    1.8820    0.4470 C   0  0  0  0  0
    9.6120    3.9760   -2.4610 CL  0  0  0  0  0
    0.0280   -5.3860   -1.5520 C   0  0  0  0  0
    1.3210   -5.4480   -0.7360 C   0  0  0  0  0
    1.8390   -4.0290   -0.4920 C   0  0  0  0  0
    0.7870   -3.2280    0.2780 C   0  0  0  0  0
   -0.5050   -3.1660   -0.5380 C   0  0  0  0  0
   -1.0230   -4.5840   -0.7820 C   0  0  0  0  0
   -0.4690   -6.7480   -1.7870 N   0  0  0  0  0
    3.0800   -4.0890    0.2920 N   0  0  0  0  0
   -1.4870   -2.4170    0.1810 O   0  0  0  0  0
   -2.2300   -4.5260   -1.5440 O   0  0  0  0  0
   -2.8250    0.2600   -1.7330 C   0  0  0  0  0
   -1.7620   -0.6370   -1.3410 O   0  0  0  0  0
   -2.4170   -1.7250   -0.6540 C   0  0  0  0  0
   -3.5100   -1.0490    0.2040 C   0  0  0  0  0
   -4.6910   -1.8540    0.2340 O   0  0  0  0  0
   -3.7840    0.2870   -0.5230 C   0  0  0  0  0
   -5.1430    0.3480   -0.9620 O   0  0  0  0  0
   -2.2680    1.6600   -2.0020 C   0  0  0  0  0
   -1.4170    1.6220   -3.1490 O   0  0  0  0  0
   -6.5790    3.0470    1.0080 C   0  0  0  0  0
   -5.7580    2.3490    0.0690 O   0  0  0  0  0
   -6.0320    0.9500   -0.0190 C   0  0  0  0  0
   -7.4780    0.7420   -0.4770 C   0  0  0  0  0
   -7.6560    1.3140   -1.8180 N   0  0  0  0  0
   -8.4220    1.4410    0.5060 C   0  0  0  0  0
   -8.2970    0.8410    1.7970 O   0  0  0  0  0
   -8.0470    2.9230    0.5920 C   0  0  0  0  0
   -8.2340    3.5370   -0.6850 O   0  0  0  0  0
   -6.1790    4.5230    1.0370 C   0  0  0  0  0
   -4.7710    4.6410    1.4360 N   0  0  0  0  0
    0.8680   -2.1690    2.5150 H   0  0  0  0  0
    1.5710    0.0980    3.1830 H   0  0  0  0  0
   -0.6550   -0.1990    2.3150 H   0  0  0  0  0
   -0.0820    1.2960    1.8630 H   0  0  0  0  0
    2.1960    0.4790    0.2170 H   0  0  0  0  0
    1.4390    2.4290    1.3760 H   0  0  0  0  0
    4.0450    0.3770    2.6470 H   0  0  0  0  0
    3.7000   -1.5700    0.3200 H   0  0  0  0  0
    5.3060   -2.9510    1.6540 H   0  0  0  0  0
    6.0230   -1.4180    1.1040 H   0  0  0  0  0
    6.4220   -1.8030    3.4270 H   0  0  0  0  0
    7.6030    4.9720   -0.7020 H   0  0  0  0  0
    9.3320    1.2230   -1.7830 H   0  0  0  0  0
    6.1170    3.8260    0.8910 H   0  0  0  0  0
    7.8420    0.0790   -0.1910 H   0  0  0  0  0
    5.7490    1.8490    2.2520 H   0  0  0  0  0
    6.4690    0.2850    1.8000 H   0  0  0  0  0
    0.2250   -4.9010   -2.5090 H   0  0  0  0  0
    1.1230   -5.9320    0.2200 H   0  0  0  0  0
    2.0700   -6.0190   -1.2850 H   0  0  0  0  0
    2.0360   -3.5450   -1.4490 H   0  0  0  0  0
    0.5900   -3.7120    1.2350 H   0  0  0  0  0
   -0.3080   -2.6810   -1.4940 H   0  0  0  0  0
   -1.2200   -5.0690    0.1740 H   0  0  0  0  0
    0.2080   -7.2980   -2.2940 H   0  0  0  0  0
   -0.7200   -7.1960   -0.9180 H   0  0  0  0  0
    3.7450   -4.7180   -0.1330 H   0  0  0  0  0
    3.4770   -3.1700    0.4110 H   0  0  0  0  0
   -2.6160   -5.3920   -1.7370 H   0  0  0  0  0
   -3.3360   -0.1200   -2.6170 H   0  0  0  0  0
   -2.8680   -2.4120   -1.3700 H   0  0  0  0  0
   -3.1460   -0.8690    1.2150 H   0  0  0  0  0
   -4.5610   -2.7280    0.6260 H   0  0  0  0  0
   -3.5570    1.1300    0.1300 H   0  0  0  0  0
   -3.0920    2.3500   -2.1830 H   0  0  0  0  0
   -1.6960    1.9960   -1.1370 H   0  0  0  0  0
   -1.0280    2.4760   -3.3790 H   0  0  0  0  0
   -6.4450    2.6140    1.9990 H   0  0  0  0  0
   -5.8910    0.4900    0.9590 H   0  0  0  0  0
   -7.7030   -0.3240   -0.5020 H   0  0  0  0  0
   -7.0430    0.8690   -2.4850 H   0  0  0  0  0
   -8.6180    1.2510   -2.1140 H   0  0  0  0  0
   -9.4500    1.3440    0.1560 H   0  0  0  0  0
   -8.8680    1.2350    2.4710 H   0  0  0  0  0
   -8.6780    3.4170    1.3310 H   0  0  0  0  0
   -9.1430    3.4920   -1.0140 H   0  0  0  0  0
   -6.3140    4.9560    0.0460 H   0  0  0  0  0
   -6.8060    5.0550    1.7540 H   0  0  0  0  0
   -4.4820    5.6080    1.4630 H   0  0  0  0  0
   -4.6070    4.1900    2.3240 H   0  0  0  0  0
  1  2  1  0  0  0
  1  3  1  0  0  0
  1 10  1  0  0  0
  1 51  1  0  0  0
  2 24  1  0  0  0
  3  4  1  0  0  0
  3  5  1  0  0  0
  3 52  1  0  0  0
  4 53  1  0  0  0
  4 54  1  0  0  0
  5  6  1  0  0  0
  5  7  1  0  0  0
  5 55  1  0  0  0
  6 56  1  0  0  0
  7  8  1  0  0  0
  7  9  1  0  0  0
  7 57  1  0  0  0
  8 17  1  0  0  0
  9 10  1  0  0  0
  9 11  1  0  0  0
  9 58  1  0  0  0
 11 12  1  0  0  0
 11 59  1  0  0  0
 11 60  1  0  0  0
 12 61  1  0  0  0
 13 15  2  0  0  0
 13 18  1  0  0  0
 13 62  1  0  0  0
 14 16  1  0  0  0
 14 18  2  0  0  0
 14 63  1  0  0  0
 15 19  1  0  0  0
 15 64  1  0  0  0
 16 19  2  0  0  0
 16 65  1  0  0  0
 17 19  1  0  0  0
 17 66  1  0  0  0
 17 67  1  0  0  0
 18 20  1  0  0  0
 21 26  1  0  0  0
 21 68  1  0  0  0
 22 21  1  0  0  0
 22 23  1  0  0  0
 22 69  1  0  0  0
 22 70  1  0  0  0
 23 24  1  0  0  0
 23 71  1  0  0  0
 24 25  1  0  0  0
 24 72  1  0  0  0
 25 73  1  0  0  0
 26 25  1  0  0  0
 26 74  1  0  0  0
 27 21  1  0  0  0
 27 75  1  0  0  0
 27 76  1  0  0  0
 28 23  1  0  0  0
 28 77  1  0  0  0
 28 78  1  0  0  0
 29 25  1  0  0  0
 30 26  1  0  0  0
 30 79  1  0  0  0
 31 32  1  0  0  0
 31 38  1  0  0  0
 31 80  1  0  0  0
 33 29  1  0  0  0
 33 34  1  0  0  0
 33 32  1  0  0  0
 33 81  1  0  0  0
 34 35  1  0  0  0
 34 36  1  0  0  0
 34 82  1  0  0  0
 35 83  1  0  0  0
 36 37  1  0  0  0
 36 31  1  0  0  0
 36 84  1  0  0  0
 37 42  1  0  0  0
 38 39  1  0  0  0
 38 85  1  0  0  0
 38 86  1  0  0  0
 39 87  1  0  0  0
 40 88  1  0  0  0
 41 40  1  0  0  0
 41 42  1  0  0  0
 42 89  1  0  0  0
 43 45  1  0  0  0
 43 42  1  0  0  0
 43 90  1  0  0  0
 44 43  1  0  0  0
 44 91  1  0  0  0
 44 92  1  0  0  0
 45 47  1  0  0  0
 45 93  1  0  0  0
 46 45  1  0  0  0
 46 94  1  0  0  0
 47 40  1  0  0  0
 47 95  1  0  0  0
 48 47  1  0  0  0
 48 96  1  0  0  0
 49 40  1  0  0  0
 49 97  1  0  0  0
 49 98  1  0  0  0
 50 49  1  0  0  0
 50 99  1  0  0  0
 50100  1  0  0  0
M  END
$$$$
