3UH
  CCTOOLS-0919241028

 48 50  0  0  0  0  0  0  0  0999 V2000
   -3.4020   -1.6870    0.0990 O   0  0  0  0  0
   -4.8090   -1.8530    0.2820 C   0  0  0  0  0
   -5.1450   -3.3220    0.2830 C   0  0  0  0  0
   -4.2690   -4.1420    0.1410 O   0  0  0  0  0
   -6.4170   -3.7200    0.4410 O   0  0  0  0  0
   -2.9300   -0.4150    0.0740 C   0  0  0  0  0
   -1.5600   -0.1780   -0.1080 C   0  0  0  0  0
   -0.6280   -1.3100   -0.2730 C   0  0  0  0  0
    0.6880   -1.0790   -0.4480 N   0  0  0  0  0
    1.6140   -2.2030   -0.6110 C   0  0  0  0  0
    3.0150   -1.6780   -0.7890 C   0  0  0  0  0
    3.8220   -1.4750    0.3150 C   0  0  0  0  0
    5.1070   -0.9930    0.1530 C   0  0  0  0  0
    5.9710   -0.7750    1.3350 N   0  3  0  0  0
    5.5490   -1.0200    2.4510 O   0  5  0  0  0
    7.1030   -0.3500    1.1920 O   0  0  0  0  0
    5.5860   -0.7150   -1.1130 C   0  0  0  0  0
    4.7800   -0.9180   -2.2180 C   0  0  0  0  0
    3.4960   -1.4050   -2.0560 C   0  0  0  0  0
   -1.0470   -2.4510   -0.2510 O   0  0  0  0  0
   -1.0820    1.1320   -0.1330 C   0  0  0  0  0
   -1.9670    2.1930    0.0230 C   0  0  0  0  0
   -1.4620    3.5880   -0.0040 C   0  0  0  0  0
   -0.1040    3.8370   -0.1900 C   0  0  0  0  0
    0.3590    5.1370   -0.2140 C   0  0  0  0  0
   -0.5220    6.1910   -0.0540 C   0  0  0  0  0
   -1.8720    5.9490    0.1320 C   0  0  0  0  0
   -2.3460    4.6540    0.1520 C   0  0  0  0  0
   -3.3290    1.9460    0.2030 C   0  0  0  0  0
   -3.8040    0.6520    0.2230 C   0  0  0  0  0
   -5.1070   -1.4120    1.2330 H   0  0  0  0  0
   -5.3420   -1.3590   -0.5300 H   0  0  0  0  0
   -6.5840   -4.6720    0.4340 H   0  0  0  0  0
    1.0230   -0.1690   -0.4650 H   0  0  0  0  0
    1.5730   -2.8390    0.2730 H   0  0  0  0  0
    1.3290   -2.7830   -1.4890 H   0  0  0  0  0
    3.4480   -1.6920    1.3050 H   0  0  0  0  0
    6.5900   -0.3380   -1.2400 H   0  0  0  0  0
    5.1540   -0.7010   -3.2070 H   0  0  0  0  0
    2.8660   -1.5640   -2.9180 H   0  0  0  0  0
   -0.0280    1.3210   -0.2720 H   0  0  0  0  0
    0.5850    3.0150   -0.3150 H   0  0  0  0  0
    1.4110    5.3320   -0.3580 H   0  0  0  0  0
   -0.1550    7.2070   -0.0740 H   0  0  0  0  0
   -2.5550    6.7760    0.2570 H   0  0  0  0  0
   -3.4010    4.4660    0.2920 H   0  0  0  0  0
   -4.0130    2.7730    0.3240 H   0  0  0  0  0
   -4.8600    0.4690    0.3590 H   0  0  0  0  0
  1  2  1  0  0  0
  2 31  1  0  0  0
  2 32  1  0  0  0
  3  2  1  0  0  0
  3  5  1  0  0  0
  4  3  2  0  0  0
  5 33  1  0  0  0
  6  1  1  0  0  0
  6 30  2  0  0  0
  7  6  1  0  0  0
  8  7  1  0  0  0
  9  8  1  0  0  0
  9 34  1  0  0  0
 10  9  1  0  0  0
 10 35  1  0  0  0
 10 36  1  0  0  0
 11 10  1  0  0  0
 12 11  2  0  0  0
 12 37  1  0  0  0
 13 12  1  0  0  0
 14 15  1  0  0  0
 14 13  1  0  0  0
 16 14  2  0  0  0
 17 13  2  0  0  0
 17 18  1  0  0  0
 17 38  1  0  0  0
 18 19  2  0  0  0
 18 39  1  0  0  0
 19 11  1  0  0  0
 19 40  1  0  0  0
 20  8  2  0  0  0
 21  7  2  0  0  0
 21 22  1  0  0  0
 21 41  1  0  0  0
 22 29  2  0  0  0
 23 22  1  0  0  0
 23 28  2  0  0  0
 24 23  1  0  0  0
 24 42  1  0  0  0
 25 24  2  0  0  0
 25 26  1  0  0  0
 25 43  1  0  0  0
 26 27  2  0  0  0
 26 44  1  0  0  0
 27 28  1  0  0  0
 27 45  1  0  0  0
 28 46  1  0  0  0
 29 30  1  0  0  0
 29 47  1  0  0  0
 30 48  1  0  0  0
M  CHG  1  14   1
M  CHG  1  15  -1
M  END
$$$$
