3XU
  CCTOOLS-0919241028

150149  0  0  1  0  0  0  0  0999 V2000
   -1.1920    0.7650    2.5640 O   0  0  0  0  0
   -2.4310    0.5580    0.7350 N   0  0  0  0  0
   -4.4230   -1.5160    0.5240 C   0  0  0  0  0
   -5.9570    4.5130    1.2180 O   0  0  0  0  0
   -4.7890    4.2520    0.3480 P   0  0  0  0  0
   -3.5650    5.1980    0.7930 O   0  0  0  0  0
   -5.1800    4.5640   -1.1830 O   0  0  0  0  0
   -5.7090    5.8200   -1.6100 C   0  0  0  0  0
   -5.9680    5.7790   -3.1170 C   0  0  0  0  0
   -7.0480    4.8250   -3.4020 N   0  3  0  0  0
   -8.2390    5.1860   -2.6220 C   0  0  0  0  0
   -7.3710    4.8640   -4.8350 C   0  0  0  0  0
   -6.6150    3.4700   -3.0350 C   0  0  0  0  0
   -4.3520    2.7080    0.4860 O   0  0  0  0  0
   -4.0470    2.0950    1.7400 C   0  0  0  0  0
   -3.6710    0.6290    1.5130 C   0  0  0  0  0
   -4.7940   -0.0730    0.7480 C   0  0  0  0  0
   -4.9850    0.5710   -0.5140 O   0  0  0  0  0
   -5.2490   -2.4680    0.8820 C   0  0  0  0  0
   -6.6370   -2.1210    1.3580 C   0  0  0  0  0
   -7.6660   -2.9190    0.5550 C   0  0  0  0  0
   -9.0740   -2.5680    1.0380 C   0  0  0  0  0
  -10.1030   -3.3650    0.2340 C   0  0  0  0  0
  -11.5120   -3.0140    0.7170 C   0  0  0  0  0
  -12.5400   -3.8110   -0.0860 C   0  0  0  0  0
  -13.9490   -3.4600    0.3970 C   0  0  0  0  0
  -14.9780   -4.2570   -0.4070 C   0  0  0  0  0
  -16.3860   -3.9060    0.0760 C   0  0  0  0  0
  -17.4150   -4.7030   -0.7270 C   0  0  0  0  0
  -18.8230   -4.3520   -0.2440 C   0  0  0  0  0
  -19.8520   -5.1500   -1.0480 C   0  0  0  0  0
  -21.2610   -4.7980   -0.5650 C   0  0  0  0  0
   -1.2390    0.6330    1.3590 C   0  0  0  0  0
    0.0360    0.5540    0.5600 C   0  0  0  0  0
    1.2370    0.6640    1.5030 C   0  0  0  0  0
    2.5310    0.5830    0.6910 C   0  0  0  0  0
    3.7310    0.6920    1.6340 C   0  0  0  0  0
    5.0260    0.6120    0.8220 C   0  0  0  0  0
    6.2260    0.7220    1.7650 C   0  0  0  0  0
    7.5210    0.6410    0.9530 C   0  0  0  0  0
    8.7210    0.7510    1.8960 C   0  0  0  0  0
   10.0160    0.6700    1.0840 C   0  0  0  0  0
   11.2160    0.7800    2.0270 C   0  0  0  0  0
   12.5110    0.6990    1.2150 C   0  0  0  0  0
   13.7110    0.8090    2.1580 C   0  0  0  0  0
   15.0050    0.7280    1.3460 C   0  0  0  0  0
   16.1880    0.8360    2.2740 C   0  0  0  0  0
   17.1320   -0.0710    2.2410 C   0  0  0  0  0
   17.1250   -1.1270    1.1650 C   0  0  0  0  0
   18.4830   -1.1450    0.4600 C   0  0  0  0  0
   18.4760   -2.2170   -0.6320 C   0  0  0  0  0
   19.8330   -2.2360   -1.3370 C   0  0  0  0  0
   19.8260   -3.3070   -2.4290 C   0  0  0  0  0
   21.1840   -3.3260   -3.1340 C   0  0  0  0  0
   21.1770   -4.3980   -4.2260 C   0  0  0  0  0
   22.5350   -4.4160   -4.9310 C   0  0  0  0  0
   -2.4680    0.4530   -0.2280 H   0  0  0  0  0
   -3.4770   -1.7660    0.0680 H   0  0  0  0  0
   -2.7640    5.0800    0.2640 H   0  0  0  0  0
   -6.6440    6.0180   -1.0860 H   0  0  0  0  0
   -4.9930    6.6110   -1.3860 H   0  0  0  0  0
   -6.2580    6.7700   -3.4640 H   0  0  0  0  0
   -5.0610    5.4650   -3.6330 H   0  0  0  0  0
   -8.5610    6.1910   -2.8950 H   0  0  0  0  0
   -9.0410    4.4780   -2.8340 H   0  0  0  0  0
   -8.0000    5.1570   -1.5590 H   0  0  0  0  0
   -6.4870    4.5960   -5.4140 H   0  0  0  0  0
   -8.1720    4.1560   -5.0460 H   0  0  0  0  0
   -7.6920    5.8690   -5.1080 H   0  0  0  0  0
   -6.6240    3.3680   -1.9500 H   0  0  0  0  0
   -7.2940    2.7400   -3.4740 H   0  0  0  0  0
   -5.6050    3.2980   -3.4080 H   0  0  0  0  0
   -3.2110    2.6170    2.2060 H   0  0  0  0  0
   -4.9180    2.1490    2.3920 H   0  0  0  0  0
   -3.5250    0.1390    2.4750 H   0  0  0  0  0
   -5.7160   -0.0200    1.3260 H   0  0  0  0  0
   -4.2030    0.5620   -1.0830 H   0  0  0  0  0
   -4.9360   -3.5000    0.8370 H   0  0  0  0  0
   -6.7310   -2.3690    2.4160 H   0  0  0  0  0
   -6.8130   -1.0550    1.2180 H   0  0  0  0  0
   -7.5720   -2.6720   -0.5030 H   0  0  0  0  0
   -7.4890   -3.9860    0.6950 H   0  0  0  0  0
   -9.1680   -2.8150    2.0950 H   0  0  0  0  0
   -9.2510   -1.5010    0.8970 H   0  0  0  0  0
  -10.0090   -3.1180   -0.8230 H   0  0  0  0  0
   -9.9260   -4.4320    0.3750 H   0  0  0  0  0
  -11.6050   -3.2610    1.7750 H   0  0  0  0  0
  -11.6880   -1.9470    0.5770 H   0  0  0  0  0
  -12.4470   -3.5640   -1.1440 H   0  0  0  0  0
  -12.3640   -4.8780    0.0540 H   0  0  0  0  0
  -14.0430   -3.7070    1.4540 H   0  0  0  0  0
  -14.1250   -2.3930    0.2560 H   0  0  0  0  0
  -14.8840   -4.0100   -1.4640 H   0  0  0  0  0
  -14.8010   -5.3240   -0.2660 H   0  0  0  0  0
  -16.4800   -4.1530    1.1340 H   0  0  0  0  0
  -16.5630   -2.8390   -0.0640 H   0  0  0  0  0
  -17.3210   -4.4560   -1.7850 H   0  0  0  0  0
  -17.2380   -5.7700   -0.5870 H   0  0  0  0  0
  -18.9170   -4.5990    0.8130 H   0  0  0  0  0
  -19.0000   -3.2860   -0.3850 H   0  0  0  0  0
  -19.7590   -4.9020   -2.1050 H   0  0  0  0  0
  -19.6760   -6.2160   -0.9070 H   0  0  0  0  0
  -21.3550   -5.0450    0.4930 H   0  0  0  0  0
  -21.4380   -3.7310   -0.7050 H   0  0  0  0  0
  -21.9940   -5.3660   -1.1370 H   0  0  0  0  0
    0.0750   -0.3990    0.0320 H   0  0  0  0  0
    1.1980    1.6160    2.0310 H   0  0  0  0  0
    2.5700   -0.3700    0.1630 H   0  0  0  0  0
    2.5590    1.4000   -0.0300 H   0  0  0  0  0
    3.6930    1.6450    2.1620 H   0  0  0  0  0
    3.7030   -0.1240    2.3550 H   0  0  0  0  0
    5.0650   -0.3410    0.2940 H   0  0  0  0  0
    5.0540    1.4290    0.1010 H   0  0  0  0  0
    6.1870    1.6740    2.2930 H   0  0  0  0  0
    6.1980   -0.0950    2.4860 H   0  0  0  0  0
    7.5600   -0.3120    0.4250 H   0  0  0  0  0
    7.5490    1.4580    0.2320 H   0  0  0  0  0
    8.6820    1.7030    2.4240 H   0  0  0  0  0
    8.6930   -0.0660    2.6170 H   0  0  0  0  0
   10.0550   -0.2830    0.5560 H   0  0  0  0  0
   10.0440    1.4870    0.3630 H   0  0  0  0  0
   11.1770    1.7320    2.5550 H   0  0  0  0  0
   11.1880   -0.0370    2.7480 H   0  0  0  0  0
   12.5500   -0.2540    0.6870 H   0  0  0  0  0
   12.5390    1.5160    0.4940 H   0  0  0  0  0
   13.6720    1.7610    2.6860 H   0  0  0  0  0
   13.6830   -0.0080    2.8790 H   0  0  0  0  0
   15.0440   -0.2240    0.8180 H   0  0  0  0  0
   15.0340    1.5450    0.6250 H   0  0  0  0  0
   16.2570    1.6620    2.9670 H   0  0  0  0  0
   17.9150   -0.0630    2.9840 H   0  0  0  0  0
   16.9350   -2.1020    1.6140 H   0  0  0  0  0
   16.3420   -0.9020    0.4410 H   0  0  0  0  0
   18.6730   -0.1700    0.0120 H   0  0  0  0  0
   19.2650   -1.3700    1.1850 H   0  0  0  0  0
   18.2860   -3.1920   -0.1830 H   0  0  0  0  0
   17.6930   -1.9920   -1.3560 H   0  0  0  0  0
   20.0230   -1.2610   -1.7860 H   0  0  0  0  0
   20.6160   -2.4610   -0.6120 H   0  0  0  0  0
   19.6360   -4.2820   -1.9800 H   0  0  0  0  0
   19.0440   -3.0820   -3.1540 H   0  0  0  0  0
   21.3740   -2.3510   -3.5820 H   0  0  0  0  0
   21.9660   -3.5510   -2.4090 H   0  0  0  0  0
   20.9870   -5.3730   -3.7770 H   0  0  0  0  0
   20.3940   -4.1730   -4.9510 H   0  0  0  0  0
   23.3170   -4.6410   -4.2060 H   0  0  0  0  0
   22.5300   -5.1800   -5.7090 H   0  0  0  0  0
   22.7250   -3.4410   -5.3800 H   0  0  0  0  0
    0.0650    1.3710   -0.1610 H   0  0  0  0  0
    1.2080   -0.1530    2.2240 H   0  0  0  0  0
  2 33  1  0  0  0
  2 57  1  0  0  0
  3 17  1  0  0  0
  3 58  1  0  0  0
  4  5  2  0  0  0
  5  7  1  0  0  0
  5  6  1  0  0  0
  6 59  1  0  0  0
  7  8  1  0  0  0
  8  9  1  0  0  0
  8 60  1  0  0  0
  8 61  1  0  0  0
  9 10  1  0  0  0
  9 62  1  0  0  0
  9 63  1  0  0  0
 10 11  1  0  0  0
 10 12  1  0  0  0
 11 64  1  0  0  0
 11 65  1  0  0  0
 11 66  1  0  0  0
 12 67  1  0  0  0
 12 68  1  0  0  0
 12 69  1  0  0  0
 13 10  1  0  0  0
 13 70  1  0  0  0
 13 71  1  0  0  0
 13 72  1  0  0  0
 14  5  1  0  0  0
 15 14  1  0  0  0
 15 73  1  0  0  0
 15 74  1  0  0  0
 16  2  1  0  0  0
 16 15  1  0  0  0
 16 75  1  0  0  0
 17 16  1  0  0  0
 17 76  1  0  0  0
 18 17  1  0  0  0
 18 77  1  0  0  0
 19  3  2  0  0  0
 19 78  1  0  0  0
 20 19  1  0  0  0
 20 79  1  0  0  0
 20 80  1  0  0  0
 21 20  1  0  0  0
 21 22  1  0  0  0
 21 81  1  0  0  0
 21 82  1  0  0  0
 22 83  1  0  0  0
 22 84  1  0  0  0
 23 24  1  0  0  0
 23 22  1  0  0  0
 23 85  1  0  0  0
 23 86  1  0  0  0
 24 25  1  0  0  0
 24 87  1  0  0  0
 24 88  1  0  0  0
 25 89  1  0  0  0
 25 90  1  0  0  0
 26 25  1  0  0  0
 26 27  1  0  0  0
 26 91  1  0  0  0
 26 92  1  0  0  0
 27 93  1  0  0  0
 27 94  1  0  0  0
 28 29  1  0  0  0
 28 27  1  0  0  0
 28 95  1  0  0  0
 28 96  1  0  0  0
 29 30  1  0  0  0
 29 97  1  0  0  0
 29 98  1  0  0  0
 30 31  1  0  0  0
 30 99  1  0  0  0
 30100  1  0  0  0
 31101  1  0  0  0
 31102  1  0  0  0
 32 31  1  0  0  0
 32103  1  0  0  0
 32104  1  0  0  0
 32105  1  0  0  0
 33 34  1  0  0  0
 33  1  2  0  0  0
 34 35  1  0  0  0
 34106  1  0  0  0
 34149  1  0  0  0
 35 36  1  0  0  0
 35107  1  0  0  0
 35150  1  0  0  0
 36108  1  0  0  0
 36109  1  0  0  0
 37 36  1  0  0  0
 37 38  1  0  0  0
 37110  1  0  0  0
 37111  1  0  0  0
 38112  1  0  0  0
 38113  1  0  0  0
 39 38  1  0  0  0
 39 40  1  0  0  0
 39114  1  0  0  0
 39115  1  0  0  0
 40 41  1  0  0  0
 40116  1  0  0  0
 40117  1  0  0  0
 41 42  1  0  0  0
 41118  1  0  0  0
 41119  1  0  0  0
 42 43  1  0  0  0
 42120  1  0  0  0
 42121  1  0  0  0
 43 44  1  0  0  0
 43122  1  0  0  0
 43123  1  0  0  0
 44 45  1  0  0  0
 44124  1  0  0  0
 44125  1  0  0  0
 45 46  1  0  0  0
 45126  1  0  0  0
 45127  1  0  0  0
 46 47  1  0  0  0
 46128  1  0  0  0
 46129  1  0  0  0
 47 48  2  0  0  0
 47130  1  0  0  0
 48131  1  0  0  0
 49 50  1  0  0  0
 49 48  1  0  0  0
 49132  1  0  0  0
 49133  1  0  0  0
 50134  1  0  0  0
 50135  1  0  0  0
 51 50  1  0  0  0
 51136  1  0  0  0
 51137  1  0  0  0
 52 51  1  0  0  0
 52138  1  0  0  0
 52139  1  0  0  0
 53 52  1  0  0  0
 53140  1  0  0  0
 53141  1  0  0  0
 54 53  1  0  0  0
 54142  1  0  0  0
 54143  1  0  0  0
 55 54  1  0  0  0
 55144  1  0  0  0
 55145  1  0  0  0
 56 55  1  0  0  0
 56146  1  0  0  0
 56147  1  0  0  0
 56148  1  0  0  0
M  CHG  1  10   1
M  END
$$$$
