40F
  CCTOOLS-0919241029

 24 25  0  0  1  0  0  0  0  0999 V2000
   -3.3720    0.8220   -0.6720 O   0  0  0  0  0
   -1.4730   -1.5930    0.5240 C   0  0  0  0  0
    3.8650    0.1100   -0.6940 O   0  0  0  0  0
   -0.0650   -2.2360    0.5990 C   0  0  0  0  0
   -1.2000   -0.2590   -0.2150 C   0  0  0  0  0
    0.8800   -1.0450    0.8610 C   0  0  0  0  0
    2.7120    0.5040   -0.1310 C   0  0  0  0  0
    1.4560   -0.3000   -0.3450 C   0  0  0  0  0
    0.1590    0.2120    0.3430 C   0  0  0  0  0
    2.6810    1.5030    0.5480 O   0  0  0  0  0
   -1.1110   -0.4820   -1.6640 N   0  0  0  0  0
   -2.2760    0.7480    0.1000 C   0  0  0  0  0
   -2.1530    1.4870    1.0470 O   0  0  0  0  0
   -4.0350    1.4830   -0.4310 H   0  0  0  0  0
   -2.1530   -2.2210   -0.0520 H   0  0  0  0  0
   -1.8680   -1.4110    1.5230 H   0  0  0  0  0
    4.6440    0.6580   -0.5280 H   0  0  0  0  0
   -0.0160   -2.9500    1.4210 H   0  0  0  0  0
    0.1830   -2.7220   -0.3440 H   0  0  0  0  0
    1.4270   -1.0370    1.8040 H   0  0  0  0  0
    1.3640   -0.7770   -1.3210 H   0  0  0  0  0
    0.1780    1.1560    0.8880 H   0  0  0  0  0
   -1.9960   -0.7900   -2.0370 H   0  0  0  0  0
   -0.7870    0.3470   -2.1380 H   0  0  0  0  0
  1 14  1  0  0  0
  2  4  1  0  0  0
  2 15  1  0  0  0
  2 16  1  0  0  0
  3 17  1  0  0  0
  4 18  1  0  0  0
  4 19  1  0  0  0
  5  9  1  0  0  0
  5  2  1  0  0  0
  6  4  1  0  0  0
  6 20  1  0  0  0
  7 10  2  0  0  0
  7  3  1  0  0  0
  8  7  1  0  0  0
  8  6  1  0  0  0
  8 21  1  0  0  0
  9  8  1  0  0  0
  9  6  1  0  0  0
  9 22  1  0  0  0
 11  5  1  0  0  0
 11 23  1  0  0  0
 11 24  1  0  0  0
 12  5  1  0  0  0
 12  1  1  0  0  0
 13 12  2  0  0  0
M  END
$$$$
