40K
  CCTOOLS-0919241029

 36 39  0  0  1  0  0  0  0  0999 V2000
    3.0100   -0.2510    0.3220 C   0  0  0  0  0
    4.5600   -3.3360   -1.0250 C   0  0  0  0  0
   -1.8860   -1.6750    0.2550 C   0  0  0  0  0
   -3.0940   -2.3350    0.1770 C   0  0  0  0  0
   -4.2740   -1.6160    0.0790 C   0  0  0  0  0
   -4.2490   -0.2320    0.0590 C   0  0  0  0  0
   -0.8720    4.5210   -0.2030 O   0  0  0  0  0
   -0.5630    3.9090   -1.1980 C   0  0  0  0  0
   -0.3970    4.5570   -2.3610 O   0  0  0  0  0
   -0.3630    2.4170   -1.1320 C   0  0  0  0  0
   -0.6110    1.9310    0.2980 C   0  0  0  0  0
    0.6490    2.6370    1.3950 S   0  0  0  0  0
    1.9820    1.5610    0.9820 C   0  0  0  0  0
    3.2650    1.7620    1.0050 N   0  0  0  0  0
    3.8810    0.6970    0.6160 N   0  0  0  0  0
    3.3190   -1.6090   -0.1540 C   0  0  0  0  0
    4.5120   -2.0120   -0.6420 C   0  0  0  0  0
    3.4200   -4.0140   -0.8610 C   0  0  0  0  0
    2.1890   -2.9560   -0.1840 S   0  0  0  0  0
    1.7670    0.2690    0.5500 N   0  0  0  0  0
    0.4970   -0.2860    0.4190 N   0  0  0  0  0
   -0.5660    0.4340    0.3250 C   0  0  0  0  0
   -1.8540   -0.2780    0.2350 C   0  0  0  0  0
   -5.7910   -2.4550   -0.0190 CL  0  0  0  0  0
   -3.0480    0.4400    0.1370 C   0  0  0  0  0
    5.4510   -3.7900   -1.4320 H   0  0  0  0  0
   -0.9670   -2.2360    0.3350 H   0  0  0  0  0
   -3.1200   -3.4140    0.1910 H   0  0  0  0  0
   -5.1730    0.3230   -0.0180 H   0  0  0  0  0
   -0.5360    5.5140   -2.3540 H   0  0  0  0  0
   -1.0620    1.9260   -1.8090 H   0  0  0  0  0
    0.6590    2.1730   -1.4250 H   0  0  0  0  0
   -1.5970    2.2650    0.6230 H   0  0  0  0  0
    5.3620   -1.3500   -0.7250 H   0  0  0  0  0
    3.2760   -5.0560   -1.1070 H   0  0  0  0  0
   -3.0300    1.5200    0.1210 H   0  0  0  0  0
  1 20  1  0  0  0
  1 15  2  0  0  0
  2 17  1  0  0  0
  2 26  1  0  0  0
  3 23  2  0  0  0
  3 27  1  0  0  0
  4  3  1  0  0  0
  4 28  1  0  0  0
  5  4  2  0  0  0
  5  6  1  0  0  0
  6 25  2  0  0  0
  6 29  1  0  0  0
  8  7  2  0  0  0
  8  9  1  0  0  0
  9 30  1  0  0  0
 10  8  1  0  0  0
 10 31  1  0  0  0
 10 32  1  0  0  0
 11 10  1  0  0  0
 11 12  1  0  0  0
 11 33  1  0  0  0
 13 12  1  0  0  0
 13 14  2  0  0  0
 15 14  1  0  0  0
 16  1  1  0  0  0
 17 16  2  0  0  0
 17 34  1  0  0  0
 18  2  2  0  0  0
 18 19  1  0  0  0
 18 35  1  0  0  0
 19 16  1  0  0  0
 20 13  1  0  0  0
 21 22  2  0  0  0
 21 20  1  0  0  0
 22 11  1  0  0  0
 23 22  1  0  0  0
 24  5  1  0  0  0
 25 23  1  0  0  0
 25 36  1  0  0  0
M  END
$$$$
