418
  CCTOOLS-0919241029

 84 86  0  0  1  0  0  0  0  0999 V2000
   -1.8340   14.0730   -1.9010 O   0  0  0  0  0
   -1.4310   12.8680   -1.4720 C   0  0  0  0  0
   -0.5560   12.1650   -1.9360 O   0  0  0  0  0
   -2.1810   12.5000   -0.2250 C   0  0  0  0  0
   -2.9910   13.3420    0.1500 O   0  0  0  0  0
   -1.9420   11.2240    0.3730 N   0  0  0  0  0
   -2.6200   10.8480    1.5330 C   0  0  0  0  0
   -3.0220   11.8170    2.4520 C   0  0  0  0  0
   -3.7000   11.4410    3.6110 C   0  0  0  0  0
   -3.9680   10.1000    3.8370 C   0  0  0  0  0
   -3.5750    9.1260    2.9330 C   0  0  0  0  0
   -2.8970    9.5020    1.7730 C   0  0  0  0  0
   -4.7010    9.6930    5.0920 C   0  0  0  0  0
   -3.7560    9.4010    6.2620 C   0  0  0  0  0
   -2.8250    8.3420    5.9600 N   0  0  0  0  0
   -1.4530    8.4890    6.0050 C   0  0  0  0  0
   -0.8530    9.5170    6.3030 O   0  0  0  0  0
   -0.8500    7.3100    5.6670 O   0  0  0  0  0
    0.5820    7.3170    5.6720 C   0  0  0  0  0
    1.0700    5.9610    5.2820 C   0  0  0  0  0
    1.8430    5.7230    4.2170 C   0  0  0  0  0
   -4.5500    8.9660    7.4890 C   0  0  0  0  0
   -4.4300    7.8560    8.0040 O   0  0  0  0  0
   -5.3670    9.9810    7.9660 N   0  0  0  0  0
   -6.1890    9.8490    9.1470 C   0  0  0  0  0
   -7.5830    9.3140    8.8330 C   0  0  0  0  0
   -8.3490   10.2090    7.8580 C   0  0  0  0  0
   -9.7500    9.6760    7.5910 C   0  0  0  0  0
  -10.4120   10.5550    6.6930 O   0  0  0  0  0
  -11.3370    9.9960    5.8490 C   0  0  0  0  0
  -12.4340    9.3400    6.3990 C   0  0  0  0  0
  -13.3870    8.7640    5.5590 C   0  0  0  0  0
  -13.2380    8.8470    4.1750 C   0  0  0  0  0
  -12.1360    9.5060    3.6300 C   0  0  0  0  0
  -12.0110    9.5750    2.2750 O   0  0  0  0  0
  -11.1830   10.0830    4.4700 C   0  0  0  0  0
  -10.0310   10.7710    3.9000 C   0  0  0  0  0
  -10.0060   11.9760    3.6230 O   0  0  0  0  0
   -8.9810    9.9160    3.7120 O   0  0  0  0  0
   -7.7860   10.4760    3.1570 C   0  0  0  0  0
   -0.9770   10.3210   -0.2460 C   0  0  0  0  0
   -1.4610    9.4550   -1.1860 C   0  0  0  0  0
   -0.5570    8.5840   -1.7920 C   0  0  0  0  0
    0.7900    8.6160   -1.4330 C   0  0  0  0  0
    1.2340    9.5190   -0.4680 C   0  0  0  0  0
    0.3290   10.3910    0.1390 C   0  0  0  0  0
    0.8250   11.3230    1.1440 C   0  0  0  0  0
    0.3500   12.4360    1.3800 O   0  0  0  0  0
    1.8970   10.8310    1.8210 O   0  0  0  0  0
   -1.3290   14.3750   -2.6860 H   0  0  0  0  0
   -2.8120   12.8690    2.2750 H   0  0  0  0  0
   -4.0080   12.2030    4.3220 H   0  0  0  0  0
   -3.7860    8.0750    3.1120 H   0  0  0  0  0
   -2.5890    8.7380    1.0640 H   0  0  0  0  0
   -5.4200   10.4750    5.3690 H   0  0  0  0  0
   -5.3110    8.8090    4.8620 H   0  0  0  0  0
   -3.1550   10.2810    6.5180 H   0  0  0  0  0
   -3.2010    7.4350    5.6970 H   0  0  0  0  0
    0.9300    8.0950    4.9850 H   0  0  0  0  0
    0.9270    7.5590    6.6830 H   0  0  0  0  0
    0.7810    5.1250    5.9140 H   0  0  0  0  0
    2.1750    4.7210    3.9700 H   0  0  0  0  0
    2.1560    6.5370    3.5720 H   0  0  0  0  0
   -5.3880   10.8610    7.4590 H   0  0  0  0  0
   -6.2620   10.8440    9.5970 H   0  0  0  0  0
   -5.6640    9.1930    9.8480 H   0  0  0  0  0
   -8.1570    9.2070    9.7620 H   0  0  0  0  0
   -7.4830    8.3120    8.3990 H   0  0  0  0  0
   -7.8040   10.2870    6.9090 H   0  0  0  0  0
   -8.4220   11.2310    8.2480 H   0  0  0  0  0
  -10.3300    9.6220    8.5180 H   0  0  0  0  0
   -9.7100    8.6800    7.1380 H   0  0  0  0  0
  -12.5560    9.2710    7.4770 H   0  0  0  0  0
  -14.2450    8.2500    5.9840 H   0  0  0  0  0
  -13.9840    8.3950    3.5270 H   0  0  0  0  0
  -11.0730    9.6090    2.0270 H   0  0  0  0  0
   -7.3120   11.1290    3.8940 H   0  0  0  0  0
   -8.0330   11.0450    2.2570 H   0  0  0  0  0
   -7.1010    9.6660    2.8970 H   0  0  0  0  0
   -2.5090    9.4200   -1.4740 H   0  0  0  0  0
   -0.9020    7.8790   -2.5440 H   0  0  0  0  0
    1.4940    7.9370   -1.9060 H   0  0  0  0  0
    2.2860    9.5340   -0.1970 H   0  0  0  0  0
    2.2380   11.4510    2.5010 H   0  0  0  0  0
  1  2  1  0  0  0
  1 50  1  0  0  0
  2  3  2  0  0  0
  2  4  1  0  0  0
  4  5  2  0  0  0
  4  6  1  0  0  0
  6  7  1  0  0  0
  6 41  1  0  0  0
  7  8  2  0  0  0
  7 12  1  0  0  0
  8  9  1  0  0  0
  8 51  1  0  0  0
  9 10  2  0  0  0
  9 52  1  0  0  0
 10 11  1  0  0  0
 10 13  1  0  0  0
 11 12  2  0  0  0
 11 53  1  0  0  0
 12 54  1  0  0  0
 13 14  1  0  0  0
 13 55  1  0  0  0
 13 56  1  0  0  0
 14 15  1  0  0  0
 14 22  1  0  0  0
 14 57  1  0  0  0
 15 16  1  0  0  0
 15 58  1  0  0  0
 16 17  2  0  0  0
 16 18  1  0  0  0
 18 19  1  0  0  0
 19 20  1  0  0  0
 19 59  1  0  0  0
 19 60  1  0  0  0
 20 21  2  0  0  0
 20 61  1  0  0  0
 21 62  1  0  0  0
 21 63  1  0  0  0
 22 23  2  0  0  0
 22 24  1  0  0  0
 24 25  1  0  0  0
 24 64  1  0  0  0
 25 26  1  0  0  0
 25 65  1  0  0  0
 25 66  1  0  0  0
 26 27  1  0  0  0
 26 67  1  0  0  0
 26 68  1  0  0  0
 27 28  1  0  0  0
 27 69  1  0  0  0
 27 70  1  0  0  0
 28 29  1  0  0  0
 28 71  1  0  0  0
 28 72  1  0  0  0
 29 30  1  0  0  0
 30 31  2  0  0  0
 30 36  1  0  0  0
 31 32  1  0  0  0
 31 73  1  0  0  0
 32 33  2  0  0  0
 32 74  1  0  0  0
 33 34  1  0  0  0
 33 75  1  0  0  0
 34 35  1  0  0  0
 34 36  2  0  0  0
 35 76  1  0  0  0
 36 37  1  0  0  0
 37 38  2  0  0  0
 37 39  1  0  0  0
 39 40  1  0  0  0
 40 77  1  0  0  0
 40 78  1  0  0  0
 40 79  1  0  0  0
 41 42  2  0  0  0
 41 46  1  0  0  0
 42 43  1  0  0  0
 42 80  1  0  0  0
 43 44  2  0  0  0
 43 81  1  0  0  0
 44 45  1  0  0  0
 44 82  1  0  0  0
 45 46  2  0  0  0
 45 83  1  0  0  0
 46 47  1  0  0  0
 47 48  2  0  0  0
 47 49  1  0  0  0
 49 84  1  0  0  0
M  END
$$$$
