429
  CCTOOLS-0919241029

 67 68  0  0  1  0  0  0  0  0999 V2000
    5.6590   -1.9890   -0.0300 C   0  0  0  0  0
    6.8170   -1.2360    0.1390 C   0  0  0  0  0
    6.7250    0.0950    0.5140 C   0  0  0  0  0
    5.4860    0.6710    0.7180 C   0  0  0  0  0
    4.3350   -0.0770    0.5500 C   0  0  0  0  0
    4.4200   -1.4070    0.1820 C   0  0  0  0  0
    8.0350   -1.8050   -0.0620 O   0  0  0  0  0
    2.4810    1.1590   -0.5380 C   0  0  0  0  0
    3.3620    2.2570   -0.9430 N   0  0  0  0  0
    3.5240    3.3240   -0.1360 C   0  0  0  0  0
    1.0820    1.6840   -0.3440 C   0  0  0  0  0
    0.0350    0.8360   -0.3690 N   0  0  0  0  0
   -1.3260    1.3460   -0.1800 C   0  0  0  0  0
   -2.3200    0.1850   -0.2520 C   0  0  0  0  0
   -4.7350   -0.4430   -0.1280 C   0  0  0  0  0
   -3.7410    0.7180   -0.0550 C   0  0  0  0  0
   -6.0620    0.0550    0.0560 O   0  0  0  0  0
    2.9390    3.3760    0.9260 O   0  0  0  0  0
    4.4300    4.4540   -0.5520 C   0  0  0  0  0
    9.0110   -0.7910    0.1860 C   0  0  0  0  0
    0.8980    2.8690   -0.1650 O   0  0  0  0  0
    2.9870    0.5570    0.7750 C   0  0  0  0  0
   10.3910   -1.3600   -0.0210 C   0  0  0  0  0
   11.4710   -0.5830    0.1580 O   0  0  0  0  0
   10.5250   -2.5150   -0.3480 O   0  0  0  0  0
   -6.8950   -1.0130   -0.0170 C   0  0  0  0  0
   -6.3820   -2.2820   -0.2360 C   0  0  0  0  0
   -7.2280   -3.3720   -0.3120 C   0  0  0  0  0
   -8.5940   -3.2120   -0.1650 C   0  0  0  0  0
   -9.1280   -1.9540    0.0600 C   0  0  0  0  0
   -8.2780   -0.8400    0.1390 C   0  0  0  0  0
   -8.8340    0.5010    0.3780 C   0  0  0  0  0
   -8.9690    0.9090    1.5150 O   0  0  0  0  0
   -9.1940    1.2770   -0.6640 O   0  0  0  0  0
   -9.7430    2.6000   -0.4280 C   0  0  0  0  0
  -10.4680   -1.7990    0.2040 O   0  0  0  0  0
    5.7440   -3.2960   -0.3970 O   0  0  0  0  0
    7.6220    0.6820    0.6450 H   0  0  0  0  0
    5.4150    1.7090    1.0100 H   0  0  0  0  0
    3.5200   -1.9890    0.0510 H   0  0  0  0  0
    2.4770    0.3920   -1.3120 H   0  0  0  0  0
    3.8300    2.2160   -1.7920 H   0  0  0  0  0
    0.1820   -0.1130   -0.5110 H   0  0  0  0  0
   -1.5540    2.0690   -0.9620 H   0  0  0  0  0
   -1.4010    1.8280    0.7950 H   0  0  0  0  0
   -2.0920   -0.5390    0.5300 H   0  0  0  0  0
   -2.2450   -0.2980   -1.2270 H   0  0  0  0  0
   -4.5070   -1.1660    0.6550 H   0  0  0  0  0
   -4.6600   -0.9260   -1.1020 H   0  0  0  0  0
   -3.9690    1.4410   -0.8380 H   0  0  0  0  0
   -3.8160    1.2000    0.9190 H   0  0  0  0  0
    4.8640    4.2310   -1.5270 H   0  0  0  0  0
    3.8560    5.3780   -0.6130 H   0  0  0  0  0
    5.2280    4.5690    0.1820 H   0  0  0  0  0
    8.8540    0.0410   -0.5010 H   0  0  0  0  0
    8.9140   -0.4370    1.2130 H   0  0  0  0  0
    3.0750    1.3430    1.5250 H   0  0  0  0  0
    2.2830   -0.2000    1.1220 H   0  0  0  0  0
   12.3560   -0.9480    0.0250 H   0  0  0  0  0
   -5.3170   -2.4190   -0.3520 H   0  0  0  0  0
   -6.8200   -4.3560   -0.4870 H   0  0  0  0  0
   -9.2460   -4.0700   -0.2250 H   0  0  0  0  0
   -9.9730    3.0730   -1.3830 H   0  0  0  0  0
  -10.6540    2.5150    0.1640 H   0  0  0  0  0
   -9.0140    3.2050    0.1110 H   0  0  0  0  0
  -10.8270   -1.6390   -0.6800 H   0  0  0  0  0
    5.7930   -3.8130    0.4180 H   0  0  0  0  0
  1  2  2  0  0  0
  1  6  1  0  0  0
  1 37  1  0  0  0
  2  3  1  0  0  0
  2  7  1  0  0  0
  3  4  2  0  0  0
  3 38  1  0  0  0
  4  5  1  0  0  0
  4 39  1  0  0  0
  5  6  2  0  0  0
  5 22  1  0  0  0
  6 40  1  0  0  0
  7 20  1  0  0  0
  8  9  1  0  0  0
  8 11  1  0  0  0
  8 22  1  0  0  0
  8 41  1  0  0  0
  9 10  1  0  0  0
  9 42  1  0  0  0
 10 18  2  0  0  0
 10 19  1  0  0  0
 11 12  1  0  0  0
 11 21  2  0  0  0
 12 13  1  0  0  0
 12 43  1  0  0  0
 13 14  1  0  0  0
 13 44  1  0  0  0
 13 45  1  0  0  0
 14 16  1  0  0  0
 14 46  1  0  0  0
 14 47  1  0  0  0
 15 16  1  0  0  0
 15 17  1  0  0  0
 15 48  1  0  0  0
 15 49  1  0  0  0
 16 50  1  0  0  0
 16 51  1  0  0  0
 17 26  1  0  0  0
 19 52  1  0  0  0
 19 53  1  0  0  0
 19 54  1  0  0  0
 20 23  1  0  0  0
 20 55  1  0  0  0
 20 56  1  0  0  0
 22 57  1  0  0  0
 22 58  1  0  0  0
 23 24  1  0  0  0
 23 25  2  0  0  0
 24 59  1  0  0  0
 26 27  2  0  0  0
 26 31  1  0  0  0
 27 28  1  0  0  0
 27 60  1  0  0  0
 28 29  2  0  0  0
 28 61  1  0  0  0
 29 30  1  0  0  0
 29 62  1  0  0  0
 30 31  2  0  0  0
 30 36  1  0  0  0
 31 32  1  0  0  0
 32 33  2  0  0  0
 32 34  1  0  0  0
 34 35  1  0  0  0
 35 63  1  0  0  0
 35 64  1  0  0  0
 35 65  1  0  0  0
 36 66  1  0  0  0
 37 67  1  0  0  0
M  END
$$$$
