42H
  CCTOOLS-0919241029

 88 87  0  0  1  0  0  0  0  0999 V2000
    1.0690   -2.5330    0.5190 O   0  0  0  0  0
    1.0170   -1.4270    0.0360 C   0  0  0  0  0
    2.1420   -0.7140   -0.1330 O   0  0  0  0  0
    3.3850   -1.3350    0.2870 C   0  0  0  0  0
    4.5490   -0.3790    0.0190 C   0  0  0  0  0
    5.8700   -1.0790    0.3450 C   0  0  0  0  0
    6.9610   -0.2300   -0.0150 O   0  0  0  0  0
    8.5020   -0.6480    0.1890 P   0  0  0  0  0
    8.7570   -1.9390   -0.4870 O   0  0  0  0  0
    9.4540    0.4860   -0.4430 O   0  0  0  0  0
   10.8760    0.3590   -0.5140 C   0  0  0  0  0
   11.4680    1.6080   -1.1680 C   0  0  0  0  0
   11.2860    2.7610   -0.2760 N   0  3  0  0  0
   11.8300    3.9660   -0.9160 C   0  0  0  0  0
    9.8550    2.9520   -0.0080 C   0  0  0  0  0
   11.9930    2.5170    0.9890 C   0  0  0  0  0
    8.8140   -0.7950    1.7620 O   0  0  0  0  0
    4.4110    0.7830    0.8390 O   0  0  0  0  0
   -0.3110   -0.8500   -0.3820 C   0  0  0  0  0
   -1.4210   -1.8610   -0.0900 C   0  0  0  0  0
   -2.7690   -1.2750   -0.5150 C   0  0  0  0  0
   -3.8800   -2.2860   -0.2220 C   0  0  0  0  0
   -5.2280   -1.7000   -0.6470 C   0  0  0  0  0
   -6.3380   -2.7110   -0.3540 C   0  0  0  0  0
   -7.6860   -2.1250   -0.7790 C   0  0  0  0  0
   -8.7800   -3.1200   -0.4900 C   0  0  0  0  0
   -9.8290   -2.7580    0.2060 C   0  0  0  0  0
  -10.0380   -1.3060    0.5530 C   0  0  0  0  0
  -11.4340   -0.8710    0.1040 C   0  0  0  0  0
  -11.6460    0.6030    0.4560 C   0  0  0  0  0
  -13.0420    1.0390    0.0070 C   0  0  0  0  0
  -13.2550    2.5130    0.3590 C   0  0  0  0  0
  -14.6510    2.9480   -0.0910 C   0  0  0  0  0
  -14.8630    4.4220    0.2620 C   0  0  0  0  0
  -16.2590    4.8580   -0.1880 C   0  0  0  0  0
    3.3370   -1.5590    1.3530 H   0  0  0  0  0
    3.5370   -2.2590   -0.2710 H   0  0  0  0  0
    4.5430   -0.0860   -1.0310 H   0  0  0  0  0
    5.9130   -1.2940    1.4130 H   0  0  0  0  0
    5.9350   -2.0120   -0.2160 H   0  0  0  0  0
   11.2810    0.2480    0.4920 H   0  0  0  0  0
   11.1320   -0.5190   -1.1070 H   0  0  0  0  0
   12.5320    1.4540   -1.3500 H   0  0  0  0  0
   10.9620    1.7980   -2.1140 H   0  0  0  0  0
   11.3060    4.1470   -1.8540 H   0  0  0  0  0
   11.6950    4.8210   -0.2540 H   0  0  0  0  0
   12.8920    3.8240   -1.1140 H   0  0  0  0  0
    9.4910    2.1400    0.6220 H   0  0  0  0  0
    9.7040    3.9030    0.5030 H   0  0  0  0  0
    9.3060    2.9550   -0.9500 H   0  0  0  0  0
   13.0550    2.3750    0.7910 H   0  0  0  0  0
   11.8580    3.3730    1.6510 H   0  0  0  0  0
   11.5890    1.6230    1.4640 H   0  0  0  0  0
    8.6680    0.0150    2.2690 H   0  0  0  0  0
    4.4080    0.5960    1.7880 H   0  0  0  0  0
   -0.4990    0.0680    0.1740 H   0  0  0  0  0
   -0.2910   -0.6310   -1.4500 H   0  0  0  0  0
   -1.2330   -2.7790   -0.6460 H   0  0  0  0  0
   -1.4410   -2.0800    0.9780 H   0  0  0  0  0
   -2.9580   -0.3560    0.0410 H   0  0  0  0  0
   -2.7500   -1.0550   -1.5820 H   0  0  0  0  0
   -3.6910   -3.2040   -0.7780 H   0  0  0  0  0
   -3.8990   -2.5050    0.8460 H   0  0  0  0  0
   -5.4170   -0.7810   -0.0910 H   0  0  0  0  0
   -5.2080   -1.4800   -1.7140 H   0  0  0  0  0
   -6.1500   -3.6290   -0.9100 H   0  0  0  0  0
   -6.3580   -2.9300    0.7140 H   0  0  0  0  0
   -7.8750   -1.2060   -0.2230 H   0  0  0  0  0
   -7.6670   -1.9050   -1.8460 H   0  0  0  0  0
   -8.7000   -4.1330   -0.8580 H   0  0  0  0  0
  -10.5430   -3.4990    0.5320 H   0  0  0  0  0
   -9.9450   -1.1730    1.6310 H   0  0  0  0  0
   -9.2870   -0.7000    0.0460 H   0  0  0  0  0
  -11.5270   -1.0030   -0.9740 H   0  0  0  0  0
  -12.1850   -1.4770    0.6100 H   0  0  0  0  0
  -11.5540    0.7360    1.5340 H   0  0  0  0  0
  -10.8960    1.2100   -0.0510 H   0  0  0  0  0
  -13.1350    0.9060   -1.0710 H   0  0  0  0  0
  -13.7930    0.4330    0.5130 H   0  0  0  0  0
  -13.1620    2.6450    1.4370 H   0  0  0  0  0
  -12.5040    3.1190   -0.1480 H   0  0  0  0  0
  -14.7430    2.8160   -1.1680 H   0  0  0  0  0
  -15.4010    2.3420    0.4160 H   0  0  0  0  0
  -14.7710    4.5550    1.3400 H   0  0  0  0  0
  -14.1130    5.0290   -0.2450 H   0  0  0  0  0
  -16.3520    4.7250   -1.2660 H   0  0  0  0  0
  -17.0100    4.2510    0.3190 H   0  0  0  0  0
  -16.4100    5.9080    0.0630 H   0  0  0  0  0
  1  2  2  0  0  0
  2  3  1  0  0  0
  2 19  1  0  0  0
  3  4  1  0  0  0
  4 36  1  0  0  0
  4 37  1  0  0  0
  5  4  1  0  0  0
  5 18  1  0  0  0
  5  6  1  0  0  0
  5 38  1  0  0  0
  6  7  1  0  0  0
  6 39  1  0  0  0
  6 40  1  0  0  0
  7  8  1  0  0  0
  8 10  1  0  0  0
  8 17  1  0  0  0
  9  8  2  0  0  0
 10 11  1  0  0  0
 11 12  1  0  0  0
 11 41  1  0  0  0
 11 42  1  0  0  0
 12 13  1  0  0  0
 12 43  1  0  0  0
 12 44  1  0  0  0
 13 16  1  0  0  0
 14 13  1  0  0  0
 14 45  1  0  0  0
 14 46  1  0  0  0
 14 47  1  0  0  0
 15 13  1  0  0  0
 15 48  1  0  0  0
 15 49  1  0  0  0
 15 50  1  0  0  0
 16 51  1  0  0  0
 16 52  1  0  0  0
 16 53  1  0  0  0
 17 54  1  0  0  0
 18 55  1  0  0  0
 19 56  1  0  0  0
 19 57  1  0  0  0
 20 19  1  0  0  0
 20 58  1  0  0  0
 20 59  1  0  0  0
 21 20  1  0  0  0
 21 60  1  0  0  0
 21 61  1  0  0  0
 22 23  1  0  0  0
 22 21  1  0  0  0
 22 62  1  0  0  0
 22 63  1  0  0  0
 23 64  1  0  0  0
 23 65  1  0  0  0
 24 23  1  0  0  0
 24 66  1  0  0  0
 24 67  1  0  0  0
 25 24  1  0  0  0
 25 68  1  0  0  0
 25 69  1  0  0  0
 26 25  1  0  0  0
 26 70  1  0  0  0
 27 26  2  0  0  0
 27 71  1  0  0  0
 28 27  1  0  0  0
 28 72  1  0  0  0
 28 73  1  0  0  0
 29 28  1  0  0  0
 29 30  1  0  0  0
 29 74  1  0  0  0
 29 75  1  0  0  0
 30 31  1  0  0  0
 30 76  1  0  0  0
 30 77  1  0  0  0
 31 32  1  0  0  0
 31 78  1  0  0  0
 31 79  1  0  0  0
 32 33  1  0  0  0
 32 80  1  0  0  0
 32 81  1  0  0  0
 33 34  1  0  0  0
 33 82  1  0  0  0
 33 83  1  0  0  0
 34 35  1  0  0  0
 34 84  1  0  0  0
 34 85  1  0  0  0
 35 86  1  0  0  0
 35 87  1  0  0  0
 35 88  1  0  0  0
M  CHG  1  13   1
M  END
$$$$
