42M
  CCTOOLS-0919241029

 37 38  0  0  0  0  0  0  0  0999 V2000
    2.1620   -0.0850   -3.1240 C   0  0  0  0  0
    1.5030    0.3780   -1.9430 O   0  0  0  0  0
    2.1370    0.1640   -0.7590 C   0  0  0  0  0
    3.3660   -0.4760   -0.7340 C   0  0  0  0  0
    4.0080   -0.6920    0.4700 C   0  0  0  0  0
    5.3440   -1.3900    0.4950 C   0  0  0  0  0
    6.3890   -0.4210    0.3850 O   0  0  0  0  0
    3.4280   -0.2700    1.6530 C   0  0  0  0  0
    2.2040    0.3700    1.6360 C   0  0  0  0  0
    1.5560    0.5940    0.4310 C   0  0  0  0  0
    0.3540    1.2280    0.4120 O   0  0  0  0  0
   -0.7610    0.4720    0.3170 C   0  0  0  0  0
   -0.6660   -0.9170    0.3610 C   0  0  0  0  0
   -1.7830   -1.6910    0.2680 C   0  0  0  0  0
   -3.0560   -1.0990    0.1240 C   0  0  0  0  0
   -4.1490   -1.8710    0.0340 N   0  3  0  0  0
   -4.0430   -3.0840    0.0750 O   0  0  0  0  0
   -5.2480   -1.3600   -0.0900 O   0  0  0  0  0
   -3.1770    0.2960    0.0770 C   0  0  0  0  0
   -2.0280    1.0910    0.1790 C   0  0  0  0  0
   -2.1260    2.4280    0.1410 N   0  3  0  0  0
   -3.2170    2.9550    0.0220 O   0  0  0  0  0
   -1.1230    3.1150    0.2260 O   0  0  0  0  0
    3.1300    0.4070   -3.2170 H   0  0  0  0  0
    2.3080   -1.1630   -3.0590 H   0  0  0  0  0
    1.5510    0.1480   -3.9960 H   0  0  0  0  0
    3.8210   -0.8070   -1.6560 H   0  0  0  0  0
    5.4520   -1.9350    1.4330 H   0  0  0  0  0
    5.4050   -2.0870   -0.3400 H   0  0  0  0  0
    3.9340   -0.4420    2.5920 H   0  0  0  0  0
    7.2790   -0.8000    0.3940 H   0  0  0  0  0
    1.7530    0.6980    2.5610 H   0  0  0  0  0
    0.3020   -1.3830    0.4700 H   0  0  0  0  0
   -1.6930   -2.7670    0.3030 H   0  0  0  0  0
   -4.1490    0.7550   -0.0330 H   0  0  0  0  0
   -3.2370    3.9220   -0.0000 H   0  0  0  0  0
   -4.8590   -3.5990    0.0050 H   0  0  0  0  0
  1  2  1  0  0  0
  1 24  1  0  0  0
  1 25  1  0  0  0
  1 26  1  0  0  0
  2  3  1  0  0  0
  3  4  1  0  0  0
  3 10  2  0  0  0
  4  5  2  0  0  0
  4 27  1  0  0  0
  5  6  1  0  0  0
  5  8  1  0  0  0
  6  7  1  0  0  0
  6 28  1  0  0  0
  6 29  1  0  0  0
  7 31  1  0  0  0
  8  9  2  0  0  0
  8 30  1  0  0  0
  9 10  1  0  0  0
  9 32  1  0  0  0
 10 11  1  0  0  0
 11 12  1  0  0  0
 12 13  1  0  0  0
 12 20  2  0  0  0
 13 14  2  0  0  0
 13 33  1  0  0  0
 14 15  1  0  0  0
 14 34  1  0  0  0
 15 16  1  0  0  0
 15 19  2  0  0  0
 16 17  1  0  0  0
 16 18  2  0  0  0
 17 37  1  0  0  0
 19 20  1  0  0  0
 19 35  1  0  0  0
 20 21  1  0  0  0
 21 22  1  0  0  0
 21 23  2  0  0  0
 22 36  1  0  0  0
M  CHG  1  16   1
M  CHG  1  21   1
M  END
$$$$
