43F
  CCTOOLS-0919241029

 30 31  0  0  0  0  0  0  0  0999 V2000
    0.9070   -0.6080   -0.4190 C   0  0  0  0  0
    1.4810   -0.2110    0.7850 C   0  0  0  0  0
    2.7120    0.4240    0.7850 C   0  0  0  0  0
    3.3670    0.6630   -0.4090 C   0  0  0  0  0
    2.7970    0.2690   -1.6040 C   0  0  0  0  0
    1.5690   -0.3660   -1.6120 C   0  0  0  0  0
   -0.2990   -1.2370   -0.4240 O   0  0  0  0  0
   -1.4180   -0.4710   -0.3290 C   0  0  0  0  0
   -2.6640   -1.0730   -0.2070 C   0  0  0  0  0
   -3.8000   -0.2930   -0.1100 C   0  0  0  0  0
   -3.6970    1.0870   -0.1350 C   0  0  0  0  0
   -2.4570    1.6880   -0.2570 C   0  0  0  0  0
   -1.3170    0.9120   -0.3470 C   0  0  0  0  0
    4.7060    1.3550   -0.4070 C   0  0  0  0  0
    6.0180    0.1250   -0.2800 CL  0  0  0  0  0
   -5.1260    2.0650   -0.0140 CL  0  0  0  0  0
   -2.7930   -2.8040   -0.1760 CL  0  0  0  0  0
    0.8350   -0.4450    1.9590 O   0  0  0  0  0
    1.4850   -0.0100    3.1550 C   0  0  0  0  0
    1.1250   -0.6730   -2.5470 H   0  0  0  0  0
    3.1600    0.7340    1.7180 H   0  0  0  0  0
    3.3120    0.4570   -2.5350 H   0  0  0  0  0
    4.8250    1.9190   -1.3320 H   0  0  0  0  0
    4.7620    2.0350    0.4440 H   0  0  0  0  0
   -0.3490    1.3820   -0.4370 H   0  0  0  0  0
   -4.7690   -0.7600   -0.0150 H   0  0  0  0  0
   -2.3790    2.7650   -0.2760 H   0  0  0  0  0
    0.8640   -0.2580    4.0160 H   0  0  0  0  0
    2.4490   -0.5090    3.2470 H   0  0  0  0  0
    1.6360    1.0690    3.1150 H   0  0  0  0  0
  1  2  1  0  0  0
  1  6  2  0  0  0
  1  7  1  0  0  0
  2  3  2  0  0  0
  2 18  1  0  0  0
  3  4  1  0  0  0
  3 21  1  0  0  0
  4  5  2  0  0  0
  4 14  1  0  0  0
  5  6  1  0  0  0
  5 22  1  0  0  0
  6 20  1  0  0  0
  7  8  1  0  0  0
  8  9  1  0  0  0
  8 13  2  0  0  0
  9 10  2  0  0  0
  9 17  1  0  0  0
 10 11  1  0  0  0
 10 26  1  0  0  0
 11 12  2  0  0  0
 11 16  1  0  0  0
 12 13  1  0  0  0
 12 27  1  0  0  0
 13 25  1  0  0  0
 14 15  1  0  0  0
 14 23  1  0  0  0
 14 24  1  0  0  0
 18 19  1  0  0  0
 19 28  1  0  0  0
 19 29  1  0  0  0
 19 30  1  0  0  0
M  END
$$$$
