442
  CCTOOLS-0919241029

 54 56  0  0  1  0  0  0  0  0999 V2000
    1.1730   -0.3010    8.5160 O   0  0  0  0  0
    0.9870    0.1880    7.1870 C   0  0  0  0  0
    2.2090    0.7570    6.7130 O   0  0  0  0  0
    0.5720   -0.9640    6.2710 C   0  0  0  0  0
    0.3750   -0.4470    4.8700 C   0  0  0  0  0
   -0.8680    0.0040    4.4700 C   0  0  0  0  0
    1.4370   -0.4310    3.9840 C   0  0  0  0  0
    1.2600    0.0420    2.6980 C   0  0  0  0  0
    2.7130    0.0630    1.4880 BR  0  0  0  0  0
    0.0130    0.5020    2.2950 C   0  0  0  0  0
   -1.0500    0.4840    3.1860 C   0  0  0  0  0
   -2.7500    1.1100    2.6420 BR  0  0  0  0  0
   -0.1640    0.9680    1.0310 O   0  0  0  0  0
   -0.5290   -0.0950    0.2680 C   0  0  0  0  0
   -0.7880    0.0760   -1.0830 C   0  0  0  0  0
   -1.1540   -1.0050   -1.8600 C   0  0  0  0  0
   -1.2730   -2.2620   -1.2850 C   0  0  0  0  0
   -1.0200   -2.4330    0.0670 C   0  0  0  0  0
   -0.6490   -1.3530    0.8420 C   0  0  0  0  0
   -1.6390   -3.3260   -2.0490 O   0  0  0  0  0
   -1.4300   -0.8190   -3.3290 C   0  0  0  0  0
   -2.8120   -0.5120   -3.5200 O   0  0  0  0  0
   -0.6080    0.2820   -3.8460 N   0  0  0  0  0
   -0.3350   -0.0190   -5.2570 C   0  0  0  0  0
    0.5210    1.0950   -5.8610 C   0  0  0  0  0
    0.8010    0.7850   -7.3090 C   0  0  0  0  0
    1.9240    0.0570   -7.6560 C   0  0  0  0  0
    2.1780   -0.2300   -8.9840 C   0  0  0  0  0
   -0.0610    1.2330   -8.2910 C   0  0  0  0  0
    0.1940    0.9490   -9.6190 C   0  0  0  0  0
    1.3150    0.2160   -9.9660 C   0  0  0  0  0
    1.4330    0.4540    9.0590 H   0  0  0  0  0
    0.2070    0.9500    7.1870 H   0  0  0  0  0
    2.8700    0.0520    6.7290 H   0  0  0  0  0
    1.3520   -1.7260    6.2710 H   0  0  0  0  0
   -0.3590   -1.3980    6.6330 H   0  0  0  0  0
   -1.6950   -0.0090    5.1630 H   0  0  0  0  0
    2.4070   -0.7890    4.2990 H   0  0  0  0  0
   -0.6950    1.0550   -1.5300 H   0  0  0  0  0
   -1.1140   -3.4120    0.5140 H   0  0  0  0  0
   -0.4510   -1.4860    1.8950 H   0  0  0  0  0
   -2.6040   -3.3740   -2.0180 H   0  0  0  0  0
   -1.1840   -1.7370   -3.8640 H   0  0  0  0  0
   -2.9870    0.3030   -3.0320 H   0  0  0  0  0
   -1.1880    1.1080   -3.8330 H   0  0  0  0  0
    0.1970   -0.9670   -5.3300 H   0  0  0  0  0
   -1.2760   -0.0890   -5.8020 H   0  0  0  0  0
   -0.0110    2.0430   -5.7890 H   0  0  0  0  0
    1.4630    1.1650   -5.3160 H   0  0  0  0  0
    2.5990   -0.2920   -6.8880 H   0  0  0  0  0
    3.0530   -0.8030   -9.2540 H   0  0  0  0  0
   -0.9370    1.8050   -8.0210 H   0  0  0  0  0
   -0.4800    1.2980  -10.3870 H   0  0  0  0  0
    1.5150   -0.0050  -11.0030 H   0  0  0  0  0
  1  2  1  0  0  0
  1 32  1  0  0  0
  2  3  1  0  0  0
  2  4  1  0  0  0
  2 33  1  0  0  0
  3 34  1  0  0  0
  4  5  1  0  0  0
  4 35  1  0  0  0
  4 36  1  0  0  0
  5  6  1  0  0  0
  5  7  2  0  0  0
  6 11  2  0  0  0
  6 37  1  0  0  0
  7  8  1  0  0  0
  7 38  1  0  0  0
  8  9  1  0  0  0
  8 10  2  0  0  0
 10 11  1  0  0  0
 10 13  1  0  0  0
 11 12  1  0  0  0
 13 14  1  0  0  0
 14 15  2  0  0  0
 14 19  1  0  0  0
 15 16  1  0  0  0
 15 39  1  0  0  0
 16 17  2  0  0  0
 16 21  1  0  0  0
 17 18  1  0  0  0
 17 20  1  0  0  0
 18 19  2  0  0  0
 18 40  1  0  0  0
 19 41  1  0  0  0
 20 42  1  0  0  0
 21 22  1  0  0  0
 21 23  1  0  0  0
 21 43  1  0  0  0
 22 44  1  0  0  0
 23 24  1  0  0  0
 23 45  1  0  0  0
 24 25  1  0  0  0
 24 46  1  0  0  0
 24 47  1  0  0  0
 25 26  1  0  0  0
 25 48  1  0  0  0
 25 49  1  0  0  0
 26 27  1  0  0  0
 26 29  2  0  0  0
 27 28  2  0  0  0
 27 50  1  0  0  0
 28 31  1  0  0  0
 28 51  1  0  0  0
 29 30  1  0  0  0
 29 52  1  0  0  0
 30 31  2  0  0  0
 30 53  1  0  0  0
 31 54  1  0  0  0
M  END
$$$$
