444
  CCTOOLS-0919241029

 43 44  0  0  1  0  0  0  0  0999 V2000
    0.6630   -1.3950   -4.1690 O   0  0  0  0  0
   -0.1560   -1.0810   -3.0520 S   0  0  0  0  0
   -0.7200   -2.0270   -2.1540 O   0  0  0  0  0
   -1.5160   -0.1660   -3.6990 C   0  0  0  0  0
   -2.7070   -0.1110   -3.0000 C   0  0  0  0  0
   -3.7730    0.6100   -3.5060 C   0  0  0  0  0
   -3.6490    1.2690   -4.7150 C   0  0  0  0  0
   -2.4600    1.2090   -5.4160 C   0  0  0  0  0
   -1.3930    0.4910   -4.9090 C   0  0  0  0  0
    0.7350   -0.0470   -2.1160 N   0  0  0  0  0
    1.8320    0.7190   -2.7110 C   0  0  0  0  0
    3.1440    0.3610   -2.0100 C   0  0  0  0  0
    4.1910    1.0920   -2.5790 F   0  0  0  0  0
    3.0440    0.6690   -0.6490 F   0  0  0  0  0
    3.3950   -1.0060   -2.1610 F   0  0  0  0  0
    0.4410    0.0940   -0.7570 C   0  0  0  0  0
    0.4990   -1.0070    0.0850 C   0  0  0  0  0
    0.2130   -0.8630    1.4290 C   0  0  0  0  0
    0.0890    1.3370   -0.2470 C   0  0  0  0  0
   -0.2010    1.4730    1.0950 C   0  0  0  0  0
   -0.1410    0.3740    1.9320 C   0  0  0  0  0
   -0.4590    0.5270    3.3970 C   0  0  0  0  0
    0.7530    0.1020    4.2290 C   0  0  0  0  0
    0.5040    0.3610    5.5810 F   0  0  0  0  0
    0.9840   -1.2650    4.0510 F   0  0  0  0  0
    1.8780    0.8230    3.8150 F   0  0  0  0  0
   -0.7730    1.8920    3.6770 O   0  0  0  0  0
   -1.6560   -0.3550    3.7540 C   0  0  0  0  0
   -1.3480   -1.6920    3.4810 F   0  0  0  0  0
   -1.9510   -0.2130    5.1150 F   0  0  0  0  0
   -2.7650    0.0320    2.9940 F   0  0  0  0  0
   -2.8040   -0.6260   -2.0560 H   0  0  0  0  0
   -4.7020    0.6560   -2.9580 H   0  0  0  0  0
   -4.4830    1.8300   -5.1110 H   0  0  0  0  0
   -2.3630    1.7240   -6.3610 H   0  0  0  0  0
   -0.4640    0.4450   -5.4570 H   0  0  0  0  0
    1.6360    1.7840   -2.5940 H   0  0  0  0  0
    1.9090    0.4780   -3.7720 H   0  0  0  0  0
    0.7730   -1.9750   -0.3070 H   0  0  0  0  0
    0.2590   -1.7190    2.0850 H   0  0  0  0  0
    0.0420    2.1960   -0.9000 H   0  0  0  0  0
   -0.4750    2.4400    1.4920 H   0  0  0  0  0
    0.0050    2.4130    3.4380 H   0  0  0  0  0
  1  2  2  0  0  0
  2  3  2  0  0  0
  2  4  1  0  0  0
  2 10  1  0  0  0
  4  5  2  0  0  0
  4  9  1  0  0  0
  5  6  1  0  0  0
  5 32  1  0  0  0
  6  7  2  0  0  0
  6 33  1  0  0  0
  7  8  1  0  0  0
  7 34  1  0  0  0
  8  9  2  0  0  0
  8 35  1  0  0  0
  9 36  1  0  0  0
 10 11  1  0  0  0
 10 16  1  0  0  0
 11 12  1  0  0  0
 11 37  1  0  0  0
 11 38  1  0  0  0
 12 13  1  0  0  0
 12 14  1  0  0  0
 12 15  1  0  0  0
 16 17  2  0  0  0
 16 19  1  0  0  0
 17 18  1  0  0  0
 17 39  1  0  0  0
 18 21  2  0  0  0
 18 40  1  0  0  0
 19 20  2  0  0  0
 19 41  1  0  0  0
 20 21  1  0  0  0
 20 42  1  0  0  0
 21 22  1  0  0  0
 22 23  1  0  0  0
 22 27  1  0  0  0
 22 28  1  0  0  0
 23 24  1  0  0  0
 23 25  1  0  0  0
 23 26  1  0  0  0
 27 43  1  0  0  0
 28 29  1  0  0  0
 28 30  1  0  0  0
 28 31  1  0  0  0
M  END
$$$$
