44B
  CCTOOLS-0919241029

 30 30  0  0  0  0  0  0  0  0999 V2000
    1.3260   -0.1620    4.4440 F   0  0  0  0  0
    1.2610   -0.2250    3.0480 C   0  0  0  0  0
    1.2600   -1.5630    2.6410 F   0  0  0  0  0
    2.3690    0.4290    2.5000 F   0  0  0  0  0
   -0.0220    0.4540    2.5670 C   0  0  0  0  0
   -0.0790    1.7850    3.0850 O   0  0  0  0  0
   -1.2340   -0.3370    3.0600 C   0  0  0  0  0
   -1.1780   -1.6390    2.5530 F   0  0  0  0  0
   -1.2260   -0.3800    4.4580 F   0  0  0  0  0
   -2.4080    0.2840    2.6200 F   0  0  0  0  0
   -0.0310    0.5010    1.0610 C   0  0  0  0  0
    0.0780   -0.6690    0.3340 C   0  0  0  0  0
    0.0650   -0.6300   -1.0460 C   0  0  0  0  0
   -0.1440    1.7160    0.4090 C   0  0  0  0  0
   -0.1530    1.7620   -0.9700 C   0  0  0  0  0
   -0.0480    0.5870   -1.7040 C   0  0  0  0  0
   -0.0560    0.6300   -3.1000 N   0  0  0  0  0
    0.0540   -0.6090   -3.8720 C   0  0  0  0  0
    0.0200   -0.2840   -5.3670 C   0  0  0  0  0
    0.1260   -1.4680   -6.1040 F   0  0  0  0  0
   -1.1850    0.3520   -5.6780 F   0  0  0  0  0
    1.0890    0.5590   -5.6850 F   0  0  0  0  0
    0.7000    2.2490    2.7510 H   0  0  0  0  0
    0.1670   -1.6160    0.8460 H   0  0  0  0  0
    0.1460   -1.5460   -1.6130 H   0  0  0  0  0
   -0.2260    2.6290    0.9800 H   0  0  0  0  0
   -0.2410    2.7110   -1.4790 H   0  0  0  0  0
   -0.1350    1.4820   -3.5580 H   0  0  0  0  0
   -0.7780   -1.2670   -3.6240 H   0  0  0  0  0
    0.9940   -1.1050   -3.6290 H   0  0  0  0  0
  1  2  1  0  0  0
  2  3  1  0  0  0
  2  4  1  0  0  0
  2  5  1  0  0  0
  5  6  1  0  0  0
  5  7  1  0  0  0
  5 11  1  0  0  0
  6 23  1  0  0  0
  7  8  1  0  0  0
  7  9  1  0  0  0
  7 10  1  0  0  0
 11 12  2  0  0  0
 11 14  1  0  0  0
 12 13  1  0  0  0
 12 24  1  0  0  0
 13 16  2  0  0  0
 13 25  1  0  0  0
 14 15  2  0  0  0
 14 26  1  0  0  0
 15 16  1  0  0  0
 15 27  1  0  0  0
 16 17  1  0  0  0
 17 18  1  0  0  0
 17 28  1  0  0  0
 18 19  1  0  0  0
 18 29  1  0  0  0
 18 30  1  0  0  0
 19 20  1  0  0  0
 19 21  1  0  0  0
 19 22  1  0  0  0
M  END
$$$$
