458
  CCTOOLS-0919241029

 39 41  0  0  1  0  0  0  0  0999 V2000
   -2.0370   -0.0720   -1.5030 C   0  0  0  0  0
   -0.5770    0.2910   -1.1930 C   0  0  0  0  0
   -0.5640    1.5550   -0.3690 C   0  0  0  0  0
    0.6660    2.4260   -0.4050 C   0  0  0  0  0
   -1.5640    1.9250    0.3650 C   0  0  0  0  0
   -2.8590    1.1810    0.4850 C   0  0  0  0  0
   -2.7660   -0.1980   -0.1600 C   0  0  0  0  0
   -4.1800   -0.7270   -0.4090 C   0  0  0  0  0
   -4.8800   -0.8210    0.8340 O   0  0  0  0  0
   -2.0220   -1.1780    0.7370 C   0  0  0  0  0
   -0.6700   -0.7790    0.9380 O   0  0  0  0  0
   -0.0080   -0.8240   -0.3270 C   0  0  0  0  0
    1.4710   -0.6090   -0.1350 C   0  0  0  0  0
    2.3600   -1.0120   -1.1150 C   0  0  0  0  0
    3.7160   -0.8110   -0.9440 C   0  0  0  0  0
    4.1870   -0.2150    0.2170 C   0  0  0  0  0
    5.5210   -0.0210    0.3900 O   0  0  0  0  0
    3.2930    0.1830    1.2010 C   0  0  0  0  0
    1.9380   -0.0150    1.0230 C   0  0  0  0  0
   -2.0780   -1.0160   -2.0470 H   0  0  0  0  0
   -2.4990    0.7190   -2.0940 H   0  0  0  0  0
   -0.0050    0.4020   -2.1150 H   0  0  0  0  0
    0.4800    3.3390    0.1600 H   0  0  0  0  0
    1.5050    1.8880    0.0380 H   0  0  0  0  0
    0.9010    2.6790   -1.4380 H   0  0  0  0  0
   -1.4570    2.8380    0.9320 H   0  0  0  0  0
   -3.1080    1.0670    1.5400 H   0  0  0  0  0
   -3.6460    1.7530   -0.0070 H   0  0  0  0  0
   -4.7110   -0.0460   -1.0740 H   0  0  0  0  0
   -4.1230   -1.7140   -0.8690 H   0  0  0  0  0
   -5.7640   -1.1580    0.6320 H   0  0  0  0  0
   -2.5250   -1.2300    1.7030 H   0  0  0  0  0
   -2.0370   -2.1650    0.2760 H   0  0  0  0  0
   -0.1810   -1.7910   -0.7990 H   0  0  0  0  0
    1.9930   -1.4760   -2.0180 H   0  0  0  0  0
    4.4090   -1.1210   -1.7110 H   0  0  0  0  0
    5.8640   -0.8140    0.8250 H   0  0  0  0  0
    3.6570    0.6480    2.1060 H   0  0  0  0  0
    1.2420    0.2940    1.7890 H   0  0  0  0  0
  1  2  1  0  0  0
  1  7  1  0  0  0
  1 20  1  0  0  0
  1 21  1  0  0  0
  2  3  1  0  0  0
  2 12  1  0  0  0
  2 22  1  0  0  0
  3  4  1  0  0  0
  3  5  2  0  0  0
  4 23  1  0  0  0
  4 24  1  0  0  0
  4 25  1  0  0  0
  5  6  1  0  0  0
  5 26  1  0  0  0
  6  7  1  0  0  0
  6 27  1  0  0  0
  6 28  1  0  0  0
  7  8  1  0  0  0
  7 10  1  0  0  0
  8  9  1  0  0  0
  8 29  1  0  0  0
  8 30  1  0  0  0
  9 31  1  0  0  0
 10 11  1  0  0  0
 10 32  1  0  0  0
 10 33  1  0  0  0
 11 12  1  0  0  0
 12 13  1  0  0  0
 12 34  1  0  0  0
 13 14  1  0  0  0
 13 19  2  0  0  0
 14 15  2  0  0  0
 14 35  1  0  0  0
 15 16  1  0  0  0
 15 36  1  0  0  0
 16 17  1  0  0  0
 16 18  2  0  0  0
 17 37  1  0  0  0
 18 19  1  0  0  0
 18 38  1  0  0  0
 19 39  1  0  0  0
M  END
$$$$
