459
  CCTOOLS-0919241029

 44 46  0  0  1  0  0  0  0  0999 V2000
    2.1060   -1.7180    1.7390 C   0  0  0  0  0
    1.9360   -0.2750    1.2590 C   0  0  0  0  0
    0.4430    0.0620    1.1490 C   0  0  0  0  0
    0.3030    1.5270    0.7190 C   0  0  0  0  0
    0.9920    2.4280    1.7460 C   0  0  0  0  0
    0.9570    1.7190   -0.6500 C   0  0  0  0  0
    2.4360    1.3350   -0.5750 C   0  0  0  0  0
    2.5600   -0.1270   -0.1350 C   0  0  0  0  0
    4.0330   -0.5390   -0.0960 C   0  0  0  0  0
    4.6040   -0.3890   -1.3980 O   0  0  0  0  0
    1.7950   -1.0120   -1.1250 C   0  0  0  0  0
    0.4390   -0.5780   -1.2100 O   0  0  0  0  0
   -0.1830   -0.8430    0.0450 C   0  0  0  0  0
   -1.6600   -0.5640   -0.0580 C   0  0  0  0  0
   -2.1130    0.4760   -0.8500 C   0  0  0  0  0
   -3.4670    0.7300   -0.9510 C   0  0  0  0  0
   -4.3720   -0.0520   -0.2490 C   0  0  0  0  0
   -5.7050    0.1990   -0.3420 O   0  0  0  0  0
   -3.9160   -1.0910    0.5490 C   0  0  0  0  0
   -2.5610   -1.3440    0.6430 C   0  0  0  0  0
    1.6350   -2.3960    1.0270 H   0  0  0  0  0
    3.1680   -1.9520    1.8160 H   0  0  0  0  0
    1.6370   -1.8330    2.7160 H   0  0  0  0  0
    2.4170    0.4060    1.9610 H   0  0  0  0  0
   -0.0600   -0.1080    2.1000 H   0  0  0  0  0
   -0.7540    1.7880    0.6580 H   0  0  0  0  0
    0.8930    3.4690    1.4400 H   0  0  0  0  0
    0.5270    2.2900    2.7210 H   0  0  0  0  0
    2.0490    2.1660    1.8070 H   0  0  0  0  0
    0.4550    1.0880   -1.3830 H   0  0  0  0  0
    0.8680    2.7630   -0.9510 H   0  0  0  0  0
    2.8940    1.4600   -1.5560 H   0  0  0  0  0
    2.9420    1.9760    0.1480 H   0  0  0  0  0
    4.5680    0.0940    0.6110 H   0  0  0  0  0
    4.1110   -1.5800    0.2170 H   0  0  0  0  0
    5.5300   -0.6580   -1.3290 H   0  0  0  0  0
    2.2600   -0.9420   -2.1080 H   0  0  0  0  0
    1.8240   -2.0460   -0.7840 H   0  0  0  0  0
   -0.0290   -1.8880    0.3130 H   0  0  0  0  0
   -1.4070    1.0840   -1.3960 H   0  0  0  0  0
   -3.8200    1.5390   -1.5730 H   0  0  0  0  0
   -5.9200    0.8300    0.3580 H   0  0  0  0  0
   -4.6190   -1.7010    1.0970 H   0  0  0  0  0
   -2.2050   -2.1530    1.2640 H   0  0  0  0  0
  1  2  1  0  0  0
  1 21  1  0  0  0
  1 22  1  0  0  0
  1 23  1  0  0  0
  2  3  1  0  0  0
  2  8  1  0  0  0
  2 24  1  0  0  0
  3  4  1  0  0  0
  3 13  1  0  0  0
  3 25  1  0  0  0
  4  5  1  0  0  0
  4  6  1  0  0  0
  4 26  1  0  0  0
  5 27  1  0  0  0
  5 28  1  0  0  0
  5 29  1  0  0  0
  6  7  1  0  0  0
  6 30  1  0  0  0
  6 31  1  0  0  0
  7  8  1  0  0  0
  7 32  1  0  0  0
  7 33  1  0  0  0
  8  9  1  0  0  0
  8 11  1  0  0  0
  9 10  1  0  0  0
  9 34  1  0  0  0
  9 35  1  0  0  0
 10 36  1  0  0  0
 11 12  1  0  0  0
 11 37  1  0  0  0
 11 38  1  0  0  0
 12 13  1  0  0  0
 13 14  1  0  0  0
 13 39  1  0  0  0
 14 15  1  0  0  0
 14 20  2  0  0  0
 15 16  2  0  0  0
 15 40  1  0  0  0
 16 17  1  0  0  0
 16 41  1  0  0  0
 17 18  1  0  0  0
 17 19  2  0  0  0
 18 42  1  0  0  0
 19 20  1  0  0  0
 19 43  1  0  0  0
 20 44  1  0  0  0
M  END
$$$$
