480
  CCTOOLS-0919241030

 37 36  0  0  1  0  0  0  0  0999 V2000
   -7.9850    0.3880   -0.0900 C   0  0  0  0  0
    5.6200   -0.6310   -0.0780 C   0  0  0  0  0
   -6.7130   -0.4280    0.1480 C   0  0  0  0  0
   -5.4880    0.4420   -0.1380 C   0  0  0  0  0
   -4.2160   -0.3750    0.1000 C   0  0  0  0  0
   -2.9900    0.4960   -0.1870 C   0  0  0  0  0
   -1.7180   -0.3210    0.0510 C   0  0  0  0  0
   -0.4930    0.5490   -0.2350 C   0  0  0  0  0
    3.1270   -0.5260    0.0530 C   0  0  0  0  0
    0.7600   -0.2550   -0.0010 C   0  0  0  0  0
    4.3990    0.2810   -0.2140 C   0  0  0  0  0
    0.6810   -1.4060    0.3580 O   0  0  0  0  0
    6.7980    0.0930   -0.4410 O   0  0  0  0  0
    4.4930    1.3480    0.7320 O   0  0  0  0  0
    1.9640    0.3080   -0.1910 O   0  0  0  0  0
   -8.8580   -0.2320    0.1140 H   0  0  0  0  0
   -7.9910    1.2530    0.5730 H   0  0  0  0  0
   -8.0120    0.7250   -1.1260 H   0  0  0  0  0
    5.7060   -0.9710    0.9540 H   0  0  0  0  0
    5.5050   -1.4920   -0.7360 H   0  0  0  0  0
   -6.6860   -0.7650    1.1840 H   0  0  0  0  0
   -6.7070   -1.2930   -0.5150 H   0  0  0  0  0
   -5.5150    0.7780   -1.1750 H   0  0  0  0  0
   -5.4930    1.3070    0.5250 H   0  0  0  0  0
   -4.1880   -0.7110    1.1360 H   0  0  0  0  0
   -4.2100   -1.2400   -0.5640 H   0  0  0  0  0
   -3.0180    0.8320   -1.2230 H   0  0  0  0  0
   -2.9960    1.3610    0.4760 H   0  0  0  0  0
   -1.6910   -0.6570    1.0870 H   0  0  0  0  0
   -1.7130   -1.1860   -0.6120 H   0  0  0  0  0
   -0.5200    0.8860   -1.2720 H   0  0  0  0  0
   -0.4980    1.4140    0.4280 H   0  0  0  0  0
    3.1000   -1.3910   -0.6100 H   0  0  0  0  0
    3.1220   -0.8630    1.0900 H   0  0  0  0  0
    4.3630    0.6920   -1.2230 H   0  0  0  0  0
    7.6120   -0.4240   -0.3780 H   0  0  0  0  0
    4.5290    1.0560    1.6520 H   0  0  0  0  0
  1 16  1  0  0  0
  1 17  1  0  0  0
  1 18  1  0  0  0
  2 11  1  0  0  0
  2 13  1  0  0  0
  2 19  1  0  0  0
  2 20  1  0  0  0
  3  1  1  0  0  0
  3 21  1  0  0  0
  3 22  1  0  0  0
  4  3  1  0  0  0
  4  5  1  0  0  0
  4 23  1  0  0  0
  4 24  1  0  0  0
  5  6  1  0  0  0
  5 25  1  0  0  0
  5 26  1  0  0  0
  6  7  1  0  0  0
  6 27  1  0  0  0
  6 28  1  0  0  0
  7  8  1  0  0  0
  7 29  1  0  0  0
  7 30  1  0  0  0
  8 10  1  0  0  0
  8 31  1  0  0  0
  8 32  1  0  0  0
  9 11  1  0  0  0
  9 33  1  0  0  0
  9 34  1  0  0  0
 10 15  1  0  0  0
 11 14  1  0  0  0
 11 35  1  0  0  0
 12 10  2  0  0  0
 13 36  1  0  0  0
 14 37  1  0  0  0
 15  9  1  0  0  0
M  END
$$$$
