482
  CCTOOLS-0919241030

 30 30  0  0  1  0  0  0  0  0999 V2000
    6.2810    0.0150    0.3860 C   0  0  0  0  0
    4.8940    0.3470   -0.1700 C   0  0  0  0  0
    3.8390   -0.4870    0.5600 C   0  0  0  0  0
    2.4740   -0.1600    0.0130 C   0  0  0  0  0
    2.3560    0.6550   -0.8690 O   0  0  0  0  0
    1.2550   -0.8520    0.5680 C   0  0  0  0  0
    0.0250   -0.3500   -0.1450 C   0  0  0  0  0
    0.1290    0.4860   -1.0170 O   0  0  0  0  0
   -1.1890   -0.8310    0.1870 N   0  0  0  0  0
   -2.3840   -0.3440   -0.5050 C   0  0  0  0  0
   -3.5100   -1.4000   -0.4460 C   0  0  0  0  0
   -4.6380   -0.6650    0.3090 C   0  0  0  0  0
   -2.9550    0.8630    0.2110 C   0  0  0  0  0
   -2.3170    1.7700    0.6920 O   0  0  0  0  0
   -4.2960    0.7500    0.2190 O   0  0  0  0  0
    6.3100    0.2440    1.4510 H   0  0  0  0  0
    6.4880   -1.0440    0.2360 H   0  0  0  0  0
    7.0320    0.6090   -0.1340 H   0  0  0  0  0
    4.6870    1.4060   -0.0200 H   0  0  0  0  0
    4.8650    0.1180   -1.2350 H   0  0  0  0  0
    4.0470   -1.5470    0.4110 H   0  0  0  0  0
    3.8690   -0.2580    1.6260 H   0  0  0  0  0
    1.3480   -1.9270    0.4190 H   0  0  0  0  0
    1.1700   -0.6390    1.6330 H   0  0  0  0  0
   -1.2720   -1.5000    0.8850 H   0  0  0  0  0
   -2.1490   -0.0970   -1.5410 H   0  0  0  0  0
   -3.8330   -1.6750   -1.4500 H   0  0  0  0  0
   -3.1840   -2.2800    0.1090 H   0  0  0  0  0
   -5.5990   -0.8540   -0.1700 H   0  0  0  0  0
   -4.6650   -0.9830    1.3510 H   0  0  0  0  0
  1  2  1  0  0  0
  1 16  1  0  0  0
  1 17  1  0  0  0
  1 18  1  0  0  0
  2 19  1  0  0  0
  2 20  1  0  0  0
  3  2  1  0  0  0
  3 21  1  0  0  0
  3 22  1  0  0  0
  4  3  1  0  0  0
  5  4  2  0  0  0
  6  7  1  0  0  0
  6  4  1  0  0  0
  6 23  1  0  0  0
  6 24  1  0  0  0
  7  9  1  0  0  0
  8  7  2  0  0  0
  9 10  1  0  0  0
  9 25  1  0  0  0
 10 11  1  0  0  0
 10 13  1  0  0  0
 10 26  1  0  0  0
 11 12  1  0  0  0
 11 27  1  0  0  0
 11 28  1  0  0  0
 12 15  1  0  0  0
 12 29  1  0  0  0
 12 30  1  0  0  0
 13 14  2  0  0  0
 13 15  1  0  0  0
M  END
$$$$
