4AA
  CCTOOLS-0919241030

 18 18  0  0  0  0  0  0  0  0999 V2000
   -1.4140    0.1000   -3.3890 O   0  0  0  0  0
   -0.2790   -0.0050   -2.6700 C   0  0  0  0  0
    0.7910   -0.1010   -3.2360 O   0  0  0  0  0
   -0.3370   -0.0050   -1.1990 C   0  0  0  0  0
   -1.5730   -0.0200   -0.5430 C   0  0  0  0  0
   -1.6240   -0.0190    0.8310 C   0  0  0  0  0
   -0.4530   -0.0110    1.5760 C   0  0  0  0  0
   -0.5330   -0.0100    3.3110 CL  0  0  0  0  0
    0.7780   -0.0020    0.9440 C   0  0  0  0  0
    1.9210    0.0070    1.6820 O   0  0  0  0  0
    0.8460   -0.0020   -0.4460 C   0  0  0  0  0
    2.0810    0.0060   -1.0860 N   0  0  0  0  0
   -1.3760    0.1000   -4.3550 H   0  0  0  0  0
   -2.4880   -0.0270   -1.1170 H   0  0  0  0  0
   -2.5800   -0.0260    1.3340 H   0  0  0  0  0
    2.1490    0.9340    1.8330 H   0  0  0  0  0
    2.8950    0.0970   -0.5670 H   0  0  0  0  0
    2.1280   -0.0820   -2.0510 H   0  0  0  0  0
  1  2  1  0  0  0
  1 13  1  0  0  0
  2  3  2  0  0  0
  2  4  1  0  0  0
  4  5  2  0  0  0
  4 11  1  0  0  0
  5  6  1  0  0  0
  5 14  1  0  0  0
  6  7  2  0  0  0
  6 15  1  0  0  0
  7  8  1  0  0  0
  7  9  1  0  0  0
  9 10  1  0  0  0
  9 11  2  0  0  0
 10 16  1  0  0  0
 11 12  1  0  0  0
 12 17  1  0  0  0
 12 18  1  0  0  0
M  END
$$$$
