4AW
  CCTOOLS-1004241119

 26 27  0  0  1  0  0  0  0  0999 V2000
    1.3760    1.2120    0.9360 N   0  0  0  0  0
    1.9760   -0.0370    0.4490 C   0  0  0  0  0
    3.4160    0.2090    0.0770 C   0  0  0  0  0
    3.7980    1.3330   -0.1460 O   0  0  0  0  0
    1.2080   -0.5270   -0.7800 C   0  0  0  0  0
   -0.1990   -0.8900   -0.3810 C   0  0  0  0  0
   -0.6460   -2.1150   -0.0560 C   0  0  0  0  0
   -1.3360    0.0260   -0.2700 C   0  0  0  0  0
   -1.9760   -2.0600    0.2500 N   0  0  0  0  0
   -2.4300   -0.7660    0.1290 C   0  0  0  0  0
   -1.4850    1.3330   -0.4610 N   0  0  0  0  0
   -3.6670   -0.1580    0.3190 C   0  0  0  0  0
   -2.6490    1.9230   -0.2870 C   0  0  0  0  0
   -3.7680    1.2050    0.1060 C   0  0  0  0  0
    4.2730   -0.8200   -0.0070 O   0  0  0  0  0
    1.4080    1.9290    0.2280 H   0  0  0  0  0
    0.4300    1.0590    1.2530 H   0  0  0  0  0
    1.9280   -0.7940    1.2330 H   0  0  0  0  0
    1.1810    0.2640   -1.5300 H   0  0  0  0  0
    1.7060   -1.4040   -1.1940 H   0  0  0  0  0
   -0.0420   -3.0100   -0.0380 H   0  0  0  0  0
   -2.5200   -2.8180    0.5150 H   0  0  0  0  0
   -4.5270   -0.7360    0.6240 H   0  0  0  0  0
   -2.7330    2.9870   -0.4510 H   0  0  0  0  0
   -4.7140    1.7070    0.2440 H   0  0  0  0  0
    5.1860   -0.6130   -0.2500 H   0  0  0  0  0
  1  2  1  0  0  0
  1 16  1  0  0  0
  1 17  1  0  0  0
  2  5  1  0  0  0
  2  3  1  0  0  0
  2 18  1  0  0  0
  3  4  2  0  0  0
  3 15  1  0  0  0
  5  6  1  0  0  0
  5 19  1  0  0  0
  5 20  1  0  0  0
  6  7  2  0  0  0
  6  8  1  0  0  0
  7  9  1  0  0  0
  7 21  1  0  0  0
  8 10  1  0  0  0
  8 11  2  0  0  0
  9 22  1  0  0  0
 10  9  1  0  0  0
 10 12  2  0  0  0
 12 14  1  0  0  0
 12 23  1  0  0  0
 13 14  2  0  0  0
 13 11  1  0  0  0
 13 24  1  0  0  0
 14 25  1  0  0  0
 15 26  1  0  0  0
M  END
$$$$
