4D8
  CCTOOLS-0919241030

 78 81  0  0  1  0  0  0  0  0999 V2000
   -6.8350   -1.4650   -0.0230 O   0  0  0  0  0
   -5.2460    2.2140    0.7320 O   0  0  0  0  0
   -7.1550    1.3060    0.0860 O   0  0  0  0  0
    1.5240   -0.0940    0.4260 C   0  0  0  0  0
    0.5920    1.0690    0.7450 C   0  0  0  0  0
   -2.6420   -0.8520   -0.1250 C   0  0  0  0  0
    2.8910    0.4990    0.7660 C   0  0  0  0  0
   -3.5550    0.3520   -0.0400 C   0  0  0  0  0
   -0.8080    0.7360    0.2880 C   0  0  0  0  0
   -1.2390   -0.4930    0.3330 C   0  0  0  0  0
    1.0240   -1.2220    1.3300 C   0  0  0  0  0
    1.3070    2.2470    0.0710 C   0  0  0  0  0
    2.7800    1.9810    0.4130 C   0  0  0  0  0
   -0.3640   -1.6160    0.8350 C   0  0  0  0  0
   -5.0210    0.0960   -0.3150 C   0  0  0  0  0
   -2.9520    1.4650   -0.8960 C   0  0  0  0  0
   -1.6550    1.8830   -0.2050 C   0  0  0  0  0
   -3.1880   -2.0050    0.7160 C   0  0  0  0  0
    3.9780   -0.1690   -0.0780 C   0  0  0  0  0
    1.4770   -0.4930   -1.0490 C   0  0  0  0  0
   -5.5220   -1.1350    0.4420 C   0  0  0  0  0
   -4.6070   -2.3390    0.2580 C   0  0  0  0  0
   -2.4930   -1.3470   -1.5630 C   0  0  0  0  0
   -5.3340   -0.0360   -1.8040 C   0  0  0  0  0
    5.3180    0.5270    0.1710 C   0  0  0  0  0
   -5.8180    1.2870    0.2080 C   0  0  0  0  0
    4.0910   -1.6450    0.3120 C   0  0  0  0  0
    6.3790   -0.0580   -0.7620 C   0  0  0  0  0
    7.6980    0.6280   -0.5170 C   0  0  0  0  0
    8.7680   -0.0830   -0.2580 C   0  0  0  0  0
   10.0460    0.6020    0.1510 C   0  0  0  0  0
    8.7200   -1.5850   -0.3710 C   0  0  0  0  0
   -7.2230   -2.2380    0.4100 H   0  0  0  0  0
   -7.6160    2.0830    0.4320 H   0  0  0  0  0
    0.5780    1.2320    1.8260 H   0  0  0  0  0
    3.1020    0.3730    1.8260 H   0  0  0  0  0
   -3.4930    0.7150    1.0190 H   0  0  0  0  0
    1.7030   -2.0770    1.2690 H   0  0  0  0  0
    0.9730   -0.8760    2.3660 H   0  0  0  0  0
    1.1450    2.2550   -1.0060 H   0  0  0  0  0
    0.9780    3.1960    0.5040 H   0  0  0  0  0
    3.0830    2.5930    1.2650 H   0  0  0  0  0
    3.4120    2.2110   -0.4460 H   0  0  0  0  0
   -0.8850   -2.1030    1.6680 H   0  0  0  0  0
   -0.2580   -2.3640    0.0490 H   0  0  0  0  0
   -2.7530    1.1500   -1.9140 H   0  0  0  0  0
   -3.6270    2.3290   -0.9240 H   0  0  0  0  0
   -1.9080    2.5220    0.6430 H   0  0  0  0  0
   -1.0670    2.4740   -0.9110 H   0  0  0  0  0
   -2.5490   -2.8820    0.5950 H   0  0  0  0  0
   -3.2010   -1.7140    1.7680 H   0  0  0  0  0
    3.7190   -0.0910   -1.1330 H   0  0  0  0  0
    0.4630   -0.7960   -1.3120 H   0  0  0  0  0
    1.7730    0.3560   -1.6650 H   0  0  0  0  0
    2.1600   -1.3240   -1.2230 H   0  0  0  0  0
   -5.5850   -0.8910    1.5080 H   0  0  0  0  0
   -4.6160   -2.6710   -0.7750 H   0  0  0  0  0
   -4.9860   -3.1640    0.8790 H   0  0  0  0  0
   -1.7170   -2.1120   -1.6050 H   0  0  0  0  0
   -3.4390   -1.7700   -1.9020 H   0  0  0  0  0
   -2.2170   -0.5130   -2.2080 H   0  0  0  0  0
   -4.7870   -0.8840   -2.2170 H   0  0  0  0  0
   -6.4040   -0.1940   -1.9390 H   0  0  0  0  0
   -5.0340    0.8760   -2.3210 H   0  0  0  0  0
    5.2130    1.5950   -0.0220 H   0  0  0  0  0
    5.6200    0.3730    1.2070 H   0  0  0  0  0
    4.9040   -2.1080   -0.2470 H   0  0  0  0  0
    4.2940   -1.7240    1.3800 H   0  0  0  0  0
    3.1550   -2.1540    0.0810 H   0  0  0  0  0
    6.4830   -1.1260   -0.5690 H   0  0  0  0  0
    6.0760    0.0960   -1.7980 H   0  0  0  0  0
    7.7610    1.7050   -0.5540 H   0  0  0  0  0
   10.6360    0.8320   -0.7360 H   0  0  0  0  0
    9.8100    1.5260    0.6800 H   0  0  0  0  0
   10.6170   -0.0560    0.8060 H   0  0  0  0  0
    7.7490   -1.8890   -0.7610 H   0  0  0  0  0
    9.5050   -1.9240   -1.0460 H   0  0  0  0  0
    8.8710   -2.0280    0.6140 H   0  0  0  0  0
  1 33  1  0  0  0
  2 26  2  0  0  0
  3 26  1  0  0  0
  3 34  1  0  0  0
  4 11  1  0  0  0
  4 20  1  0  0  0
  5  4  1  0  0  0
  5 35  1  0  0  0
  6 10  1  0  0  0
  6 23  1  0  0  0
  7  4  1  0  0  0
  7 19  1  0  0  0
  7 36  1  0  0  0
  8 16  1  0  0  0
  8  6  1  0  0  0
  8 37  1  0  0  0
  9  5  1  0  0  0
  9 10  2  0  0  0
 10 14  1  0  0  0
 11 38  1  0  0  0
 11 39  1  0  0  0
 12  5  1  0  0  0
 12 13  1  0  0  0
 12 40  1  0  0  0
 12 41  1  0  0  0
 13  7  1  0  0  0
 13 42  1  0  0  0
 13 43  1  0  0  0
 14 11  1  0  0  0
 14 44  1  0  0  0
 14 45  1  0  0  0
 15  8  1  0  0  0
 15 24  1  0  0  0
 16 46  1  0  0  0
 16 47  1  0  0  0
 17 16  1  0  0  0
 17  9  1  0  0  0
 17 48  1  0  0  0
 17 49  1  0  0  0
 18  6  1  0  0  0
 18 50  1  0  0  0
 18 51  1  0  0  0
 19 27  1  0  0  0
 19 52  1  0  0  0
 20 53  1  0  0  0
 20 54  1  0  0  0
 20 55  1  0  0  0
 21  1  1  0  0  0
 21 15  1  0  0  0
 21 22  1  0  0  0
 21 56  1  0  0  0
 22 18  1  0  0  0
 22 57  1  0  0  0
 22 58  1  0  0  0
 23 59  1  0  0  0
 23 60  1  0  0  0
 23 61  1  0  0  0
 24 62  1  0  0  0
 24 63  1  0  0  0
 24 64  1  0  0  0
 25 19  1  0  0  0
 25 65  1  0  0  0
 25 66  1  0  0  0
 26 15  1  0  0  0
 27 67  1  0  0  0
 27 68  1  0  0  0
 27 69  1  0  0  0
 28 29  1  0  0  0
 28 25  1  0  0  0
 28 70  1  0  0  0
 28 71  1  0  0  0
 29 72  1  0  0  0
 30 32  1  0  0  0
 30 29  2  0  0  0
 31 30  1  0  0  0
 31 73  1  0  0  0
 31 74  1  0  0  0
 31 75  1  0  0  0
 32 76  1  0  0  0
 32 77  1  0  0  0
 32 78  1  0  0  0
M  END
$$$$
