4DB
  CCTOOLS-1004241119

 38 39  0  0  1  0  0  0  0  0999 V2000
    5.1480    0.0920   -0.9210 C   0  0  0  0  0
    4.5190    1.3600    1.0540 N   0  0  0  0  0
    5.5620    1.1300   -1.3780 O   0  0  0  0  0
    4.3030    0.1020    0.3270 C   0  0  0  0  0
    2.8270   -0.0190   -0.0550 C   0  0  0  0  0
   -6.2990   -0.1850   -0.9050 C   0  0  0  0  0
   -5.2890    2.1110   -0.5210 C   0  0  0  0  0
   -3.7890   -1.3180   -0.3170 C   0  0  0  0  0
   -2.5730   -1.9140   -0.0390 C   0  0  0  0  0
   -2.8250    0.8670    0.0500 C   0  0  0  0  0
   -3.9200    0.0650   -0.2760 C   0  0  0  0  0
   -0.0700   -1.4140    0.6240 C   0  0  0  0  0
   -0.2680    0.7950    0.6900 C   0  0  0  0  0
   -1.4750   -1.1270    0.2810 C   0  0  0  0  0
   -1.6040    0.2780    0.3230 C   0  0  0  0  0
   -5.1470    0.6530   -0.5620 N   0  0  0  0  0
    0.5650   -0.2500    0.8470 N   0  0  0  0  0
    0.4310   -2.5190    0.6930 O   0  0  0  0  0
    0.0270    1.9650    0.8270 O   0  0  0  0  0
    1.9790   -0.1340    1.2130 C   0  0  0  0  0
    5.4350   -1.0710   -1.5280 O   0  0  0  0  0
    5.4730    1.4340    1.3740 H   0  0  0  0  0
    4.2660    2.1550    0.4850 H   0  0  0  0  0
    4.5840   -0.7370    0.9630 H   0  0  0  0  0
    2.5230    0.8650   -0.6170 H   0  0  0  0  0
    2.6820   -0.9070   -0.6700 H   0  0  0  0  0
   -6.5170   -0.8590   -0.0770 H   0  0  0  0  0
   -7.1650    0.4490   -1.0950 H   0  0  0  0  0
   -6.0710   -0.7670   -1.7980 H   0  0  0  0  0
   -5.0670    2.5260   -1.5040 H   0  0  0  0  0
   -6.3100    2.3690   -0.2400 H   0  0  0  0  0
   -4.5950    2.5230    0.2120 H   0  0  0  0  0
   -4.6420   -1.9310   -0.5710 H   0  0  0  0  0
   -2.4780   -2.9890   -0.0720 H   0  0  0  0  0
   -2.9280    1.9410    0.0800 H   0  0  0  0  0
    2.2830   -1.0170    1.7740 H   0  0  0  0  0
    2.1230    0.7550    1.8280 H   0  0  0  0  0
    5.9770   -1.0260   -2.3270 H   0  0  0  0  0
  1 21  1  0  0  0
  2  4  1  0  0  0
  2 22  1  0  0  0
  2 23  1  0  0  0
  3  1  2  0  0  0
  4  1  1  0  0  0
  4  5  1  0  0  0
  4 24  1  0  0  0
  5 20  1  0  0  0
  5 25  1  0  0  0
  5 26  1  0  0  0
  6 27  1  0  0  0
  6 28  1  0  0  0
  6 29  1  0  0  0
  7 30  1  0  0  0
  7 31  1  0  0  0
  7 32  1  0  0  0
  8 11  1  0  0  0
  8 33  1  0  0  0
  9  8  2  0  0  0
  9 34  1  0  0  0
 10 11  2  0  0  0
 10 35  1  0  0  0
 11 16  1  0  0  0
 12 14  1  0  0  0
 13 19  2  0  0  0
 13 15  1  0  0  0
 14  9  1  0  0  0
 14 15  2  0  0  0
 15 10  1  0  0  0
 16  6  1  0  0  0
 16  7  1  0  0  0
 17 12  1  0  0  0
 17 13  1  0  0  0
 18 12  2  0  0  0
 20 17  1  0  0  0
 20 36  1  0  0  0
 20 37  1  0  0  0
 21 38  1  0  0  0
M  END
$$$$
