4FC
  CCTOOLS-0919241031

 25 26  0  0  0  0  0  0  0  0999 V2000
   -3.5270    1.1060    0.4920 C   0  0  0  0  0
   -4.2240    0.0160   -0.0040 C   0  0  0  0  0
   -3.5400   -1.0830   -0.4970 C   0  0  0  0  0
   -2.1610   -1.0950   -0.5020 C   0  0  0  0  0
   -1.4550   -0.0030    0.0020 C   0  0  0  0  0
   -2.1470    1.1010    0.4970 C   0  0  0  0  0
    0.7160   -1.1840    0.3270 C   0  0  0  0  0
    0.0280   -0.0140    0.0040 C   0  0  0  0  0
    0.7330    1.1470   -0.3160 C   0  0  0  0  0
    2.1100    1.1400   -0.3090 C   0  0  0  0  0
    2.8000   -0.0330    0.0080 C   0  0  0  0  0
    2.0920   -1.1950    0.3290 C   0  0  0  0  0
   -5.5750    0.0260   -0.0070 F   0  0  0  0  0
    4.2760   -0.0440    0.0110 C   0  0  0  0  0
    4.9580    1.0760   -0.2990 O   0  0  0  0  0
    4.8760   -1.0620    0.2910 O   0  0  0  0  0
   -4.0640    1.9610    0.8760 H   0  0  0  0  0
   -4.0880   -1.9310   -0.8830 H   0  0  0  0  0
   -1.6280   -1.9530   -0.8860 H   0  0  0  0  0
   -1.6040    1.9500    0.8850 H   0  0  0  0  0
    0.1690   -2.0810    0.5740 H   0  0  0  0  0
    0.1990    2.0520   -0.5650 H   0  0  0  0  0
    2.6560    2.0380   -0.5570 H   0  0  0  0  0
    2.6250   -2.1010    0.5780 H   0  0  0  0  0
    5.9250    1.0690   -0.2970 H   0  0  0  0  0
  1  2  2  0  0  0
  1  6  1  0  0  0
  1 17  1  0  0  0
  2  3  1  0  0  0
  2 13  1  0  0  0
  3  4  2  0  0  0
  3 18  1  0  0  0
  4  5  1  0  0  0
  4 19  1  0  0  0
  5  6  2  0  0  0
  5  8  1  0  0  0
  6 20  1  0  0  0
  7  8  2  0  0  0
  7 12  1  0  0  0
  7 21  1  0  0  0
  8  9  1  0  0  0
  9 10  2  0  0  0
  9 22  1  0  0  0
 10 11  1  0  0  0
 10 23  1  0  0  0
 11 12  2  0  0  0
 11 14  1  0  0  0
 12 24  1  0  0  0
 14 15  1  0  0  0
 14 16  2  0  0  0
 15 25  1  0  0  0
M  END
$$$$
