4FW
  CCTOOLS-1004241119

 27 28  0  0  1  0  0  0  0  0999 V2000
   -1.9720    4.0660    5.9880 N   0  0  0  0  0
   -1.2760    2.8640    5.6030 C   0  0  0  0  0
   -2.1490    1.6160    5.8760 C   0  0  0  0  0
   -1.3810    0.3630    6.0200 C   0  0  0  0  0
   -0.8490   -0.1730    7.2270 C   0  0  0  0  0
   -0.2010   -1.3650    6.8950 C   0  0  0  0  0
   -0.8580    0.2430    8.5730 C   0  0  0  0  0
   -1.0500   -0.4980    4.9990 C   0  0  0  0  0
   -0.3390   -1.5370    5.5360 N   0  0  0  0  0
    0.4430   -2.1640    7.8470 C   0  0  0  0  0
   -0.2180   -0.5470    9.5350 C   0  0  0  0  0
   -1.4650    1.3790    8.9410 F   0  0  0  0  0
    0.4210   -1.7320    9.1760 C   0  0  0  0  0
   -0.8450    2.9210    4.1450 C   0  0  0  0  0
   -1.5090    3.4750    3.2750 O   0  0  0  0  0
    0.3380    2.3190    3.8770 O   0  0  0  0  0
   -2.2700    4.7070    5.2720 H   0  0  0  0  0
   -1.9690    4.3440    6.9550 H   0  0  0  0  0
   -0.3610    2.8350    6.2050 H   0  0  0  0  0
   -2.7510    1.7910    6.7910 H   0  0  0  0  0
   -2.9100    1.5330    5.0720 H   0  0  0  0  0
   -1.2570   -0.4660    3.9380 H   0  0  0  0  0
    0.0320   -2.3170    5.0120 H   0  0  0  0  0
    0.9410   -3.0870    7.5680 H   0  0  0  0  0
   -0.2210   -0.2310   10.5750 H   0  0  0  0  0
    0.9120   -2.3290    9.9400 H   0  0  0  0  0
    0.6190    2.3610    2.9390 H   0  0  0  0  0
  1  2  1  0  0  0
  1 17  1  0  0  0
  1 18  1  0  0  0
  2  3  1  0  0  0
  2 14  1  0  0  0
  2 19  1  0  0  0
  3  4  1  0  0  0
  3 20  1  0  0  0
  3 21  1  0  0  0
  4  5  1  0  0  0
  4  8  2  0  0  0
  5  6  2  0  0  0
  5  7  1  0  0  0
  6  9  1  0  0  0
  6 10  1  0  0  0
  7 11  2  0  0  0
  7 12  1  0  0  0
  8  9  1  0  0  0
  8 22  1  0  0  0
  9 23  1  0  0  0
 10 13  2  0  0  0
 10 24  1  0  0  0
 11 13  1  0  0  0
 11 25  1  0  0  0
 13 26  1  0  0  0
 14 15  2  0  0  0
 14 16  1  0  0  0
 16 27  1  0  0  0
M  END
$$$$
