4HM
  CCTOOLS-0919241031

 19 19  0  0  0  0  0  0  0  0999 V2000
   -1.0170   -0.0490    1.3100 C   0  0  0  0  0
    0.3410    0.0370    1.0250 C   0  0  0  0  0
    0.7630    0.2230   -0.2810 C   0  0  0  0  0
   -0.1700    0.3280   -1.3010 C   0  0  0  0  0
   -1.5240    0.2470   -1.0130 C   0  0  0  0  0
   -1.9460    0.0610    0.2890 C   0  0  0  0  0
    0.2420    0.5110   -2.5830 O   0  0  0  0  0
    0.4150   -0.8240   -3.1680 O   0  0  0  0  0
    1.2550   -0.0660    2.0270 O   0  0  0  0  0
   -1.4330   -0.2320    2.5930 O   0  0  0  0  0
    2.5450    0.0530    1.4240 C   0  0  0  0  0
    1.8170    0.2870   -0.5050 H   0  0  0  0  0
   -2.2500    0.3290   -1.8090 H   0  0  0  0  0
   -3.0020   -0.0010    0.5100 H   0  0  0  0  0
    0.7090   -0.6940   -4.0800 H   0  0  0  0  0
   -1.4930   -1.1870    2.7330 H   0  0  0  0  0
    3.3140   -0.0230    2.1920 H   0  0  0  0  0
    2.6800   -0.7430    0.6920 H   0  0  0  0  0
    2.6240    1.0200    0.9260 H   0  0  0  0  0
  1  2  2  0  0  0
  1  6  1  0  0  0
  1 10  1  0  0  0
  2  3  1  0  0  0
  2  9  1  0  0  0
  3  4  2  0  0  0
  3 12  1  0  0  0
  4  5  1  0  0  0
  4  7  1  0  0  0
  5  6  2  0  0  0
  5 13  1  0  0  0
  6 14  1  0  0  0
  7  8  1  0  0  0
  8 15  1  0  0  0
  9 11  1  0  0  0
 10 16  1  0  0  0
 11 17  1  0  0  0
 11 18  1  0  0  0
 11 19  1  0  0  0
M  END
$$$$
