4IN
  CCTOOLS-1004241119

 29 30  0  0  1  0  0  0  0  0999 V2000
   -2.1010   -1.4290    1.1790 N   0  0  0  0  0
   -1.9510   -0.1820    0.4170 C   0  0  0  0  0
   -1.1950   -0.4670   -0.8820 C   0  0  0  0  0
    0.2130   -0.8990   -0.5610 C   0  0  0  0  0
    0.6750   -2.1580   -0.5350 C   0  0  0  0  0
    2.0040   -2.1600   -0.2030 N   0  0  0  0  0
    2.4380   -0.8680   -0.0030 C   0  0  0  0  0
    3.6680   -0.3160    0.3440 C   0  0  0  0  0
    3.7990    1.0490    0.4740 C   0  0  0  0  0
    2.7150    1.8890    0.2630 C   0  0  0  0  0
    1.4820    1.3640   -0.0820 C   0  0  0  0  0
    0.3930    2.2100   -0.2940 N   0  0  0  0  0
    1.3370   -0.0230   -0.2230 C   0  0  0  0  0
   -3.3130    0.3760    0.0940 C   0  0  0  0  0
   -3.4470    1.6720   -0.2290 O   0  0  0  0  0
   -4.2830   -0.3420    0.1260 O   0  0  0  0  0
   -2.5210   -1.2540    2.0800 H   0  0  0  0  0
   -2.6330   -2.1090    0.6580 H   0  0  0  0  0
   -1.3930    0.5420    1.0110 H   0  0  0  0  0
   -1.7020   -1.2600   -1.4310 H   0  0  0  0  0
   -1.1670    0.4370   -1.4920 H   0  0  0  0  0
    0.0870   -3.0390   -0.7440 H   0  0  0  0  0
    2.5570   -2.9530   -0.1210 H   0  0  0  0  0
    4.5190   -0.9580    0.5110 H   0  0  0  0  0
    4.7560    1.4700    0.7440 H   0  0  0  0  0
    2.8340    2.9570    0.3690 H   0  0  0  0  0
    0.4770    3.1620   -0.1250 H   0  0  0  0  0
   -0.4490    1.8470   -0.6100 H   0  0  0  0  0
   -4.3410    1.9850   -0.4280 H   0  0  0  0  0
  1  2  1  0  0  0
  1 17  1  0  0  0
  1 18  1  0  0  0
  2  3  1  0  0  0
  2 14  1  0  0  0
  2 19  1  0  0  0
  3  4  1  0  0  0
  3 20  1  0  0  0
  3 21  1  0  0  0
  4  5  2  0  0  0
  4 13  1  0  0  0
  5  6  1  0  0  0
  5 22  1  0  0  0
  6  7  1  0  0  0
  6 23  1  0  0  0
  7  8  2  0  0  0
  7 13  1  0  0  0
  8  9  1  0  0  0
  8 24  1  0  0  0
  9 10  2  0  0  0
  9 25  1  0  0  0
 10 11  1  0  0  0
 10 26  1  0  0  0
 11 12  1  0  0  0
 11 13  2  0  0  0
 12 27  1  0  0  0
 12 28  1  0  0  0
 14 15  1  0  0  0
 14 16  2  0  0  0
 15 29  1  0  0  0
M  END
$$$$
