4MQ
  CCTOOLS-0919241032

 36 38  0  0  0  0  0  0  0  0999 V2000
   -3.1140   -1.6090   -0.0220 N   0  0  0  0  0
   -2.0860   -2.4210    0.0510 C   0  0  0  0  0
   -2.9300   -0.2820   -0.0660 C   0  0  0  0  0
    0.7700   -0.2730    0.0820 N   0  0  0  0  0
   -1.6080    0.2240   -0.0320 C   0  0  0  0  0
    3.6550    0.0870   -0.2520 N   0  0  0  0  0
   -1.3920    1.6050   -0.0770 C   0  0  0  0  0
   -2.4610    2.4500   -0.1520 C   0  0  0  0  0
   -3.7610    1.9550   -0.1850 C   0  0  0  0  0
   -0.5390   -0.7030    0.0470 C   0  0  0  0  0
    1.5350   -0.8090   -1.0670 C   0  0  0  0  0
    2.7020    0.0120   -1.3830 C   0  0  0  0  0
   -4.0050    0.6150   -0.1430 C   0  0  0  0  0
    1.4060   -0.6560    1.3180 C   0  0  0  0  0
   -0.8340   -1.9960    0.0850 N   0  0  0  0  0
    5.0080    0.4080   -0.7250 C   0  0  0  0  0
    3.1990    1.0590    0.7110 C   0  0  0  0  0
    2.3710    0.4250    1.8480 C   0  0  0  0  0
   -2.2710   -3.4850    0.0850 H   0  0  0  0  0
   -5.0200    0.2460   -0.1700 H   0  0  0  0  0
    1.8680   -1.8200   -0.8300 H   0  0  0  0  0
    0.8830   -0.8480   -1.9390 H   0  0  0  0  0
    0.6370   -0.8400    2.0680 H   0  0  0  0  0
    1.9640   -1.5780    1.1560 H   0  0  0  0  0
   -0.3870    2.0000   -0.0510 H   0  0  0  0  0
    2.3680    1.0200   -1.6320 H   0  0  0  0  0
    3.2110   -0.4140   -2.2470 H   0  0  0  0  0
    5.0100    1.4020   -1.1730 H   0  0  0  0  0
    5.7010    0.3880    0.1170 H   0  0  0  0  0
    5.3170   -0.3260   -1.4680 H   0  0  0  0  0
    4.0660    1.5600    1.1430 H   0  0  0  0  0
    2.5850    1.8000    0.1990 H   0  0  0  0  0
   -2.2950    3.5160   -0.1860 H   0  0  0  0  0
   -4.5910    2.6450   -0.2440 H   0  0  0  0  0
    1.7930    1.2050    2.3440 H   0  0  0  0  0
    3.0490   -0.0280    2.5710 H   0  0  0  0  0
  1  2  1  0  0  0
  1  3  2  0  0  0
  2 15  2  0  0  0
  2 19  1  0  0  0
  3  5  1  0  0  0
  3 13  1  0  0  0
  4 10  1  0  0  0
  4 11  1  0  0  0
  4 14  1  0  0  0
  5  7  1  0  0  0
  5 10  2  0  0  0
  6 12  1  0  0  0
  6 16  1  0  0  0
  6 17  1  0  0  0
  7  8  2  0  0  0
  7 25  1  0  0  0
  8  9  1  0  0  0
  8 33  1  0  0  0
  9 13  2  0  0  0
  9 34  1  0  0  0
 10 15  1  0  0  0
 11 12  1  0  0  0
 11 21  1  0  0  0
 11 22  1  0  0  0
 12 26  1  0  0  0
 12 27  1  0  0  0
 13 20  1  0  0  0
 14 18  1  0  0  0
 14 23  1  0  0  0
 14 24  1  0  0  0
 16 28  1  0  0  0
 16 29  1  0  0  0
 16 30  1  0  0  0
 17 18  1  0  0  0
 17 31  1  0  0  0
 17 32  1  0  0  0
 18 35  1  0  0  0
 18 36  1  0  0  0
M  END
$$$$
