4NA
  CCTOOLS-0919241032

 30 32  0  0  0  0  0  0  0  0999 V2000
   -3.8810   -0.8990    0.1180 C   0  0  0  0  0
   -3.1690    0.2710   -0.0200 C   0  0  0  0  0
   -1.7640    0.2310   -0.0200 C   0  0  0  0  0
   -1.1040   -1.0160    0.1230 C   0  0  0  0  0
   -1.8640   -2.1910    0.2610 C   0  0  0  0  0
   -3.2230   -2.1240    0.2570 C   0  0  0  0  0
   -1.0060    1.4080   -0.1590 C   0  0  0  0  0
    0.3500    1.3460   -0.1560 C   0  0  0  0  0
    1.0150    0.1160   -0.0160 C   0  0  0  0  0
    0.2990   -1.0580    0.1170 C   0  0  0  0  0
    2.4970    0.0780   -0.0160 C   0  0  0  0  0
    3.1690   -0.9480   -0.6790 C   0  0  0  0  0
    4.5480   -0.9790   -0.6810 C   0  0  0  0  0
    5.2670    0.0050   -0.0150 C   0  0  0  0  0
    4.6010    1.0280    0.6460 C   0  0  0  0  0
    3.2220    1.0670    0.6480 C   0  0  0  0  0
    6.6250   -0.0310   -0.0150 O   0  0  0  0  0
   -4.0000    1.7850   -0.1930 CL  0  0  0  0  0
   -5.2400   -0.8630    0.1180 O   0  0  0  0  0
   -1.3700   -3.1450    0.3700 H   0  0  0  0  0
   -3.8010   -3.0300    0.3640 H   0  0  0  0  0
   -1.5030    2.3610   -0.2670 H   0  0  0  0  0
    0.9260    2.2530   -0.2630 H   0  0  0  0  0
    0.8150   -2.0020    0.2200 H   0  0  0  0  0
    2.6110   -1.7160   -1.1940 H   0  0  0  0  0
    5.0690   -1.7730   -1.1950 H   0  0  0  0  0
    5.1620    1.7940    1.1600 H   0  0  0  0  0
    2.7040    1.8620    1.1630 H   0  0  0  0  0
    6.8910   -0.5470    0.7580 H   0  0  0  0  0
   -5.5220   -0.9620   -0.8020 H   0  0  0  0  0
  1  2  2  0  0  0
  1  6  1  0  0  0
  1 19  1  0  0  0
  2  3  1  0  0  0
  2 18  1  0  0  0
  3  4  1  0  0  0
  3  7  2  0  0  0
  4  5  1  0  0  0
  4 10  2  0  0  0
  5  6  2  0  0  0
  5 20  1  0  0  0
  6 21  1  0  0  0
  7  8  1  0  0  0
  7 22  1  0  0  0
  8  9  2  0  0  0
  8 23  1  0  0  0
  9 10  1  0  0  0
  9 11  1  0  0  0
 10 24  1  0  0  0
 11 12  1  0  0  0
 11 16  2  0  0  0
 12 13  2  0  0  0
 12 25  1  0  0  0
 13 14  1  0  0  0
 13 26  1  0  0  0
 14 15  2  0  0  0
 14 17  1  0  0  0
 15 16  1  0  0  0
 15 27  1  0  0  0
 16 28  1  0  0  0
 17 29  1  0  0  0
 19 30  1  0  0  0
M  END
$$$$
