4NL
  CCTOOLS-0919241032

 15 15  0  0  0  0  0  0  0  0999 V2000
    2.9210   -1.6310    0.6080 C   0  0  0  0  0
    0.8070   -0.4630    0.5610 C   0  0  0  0  0
    2.8780   -1.6520    2.0020 C   0  0  0  0  0
    1.8000   -1.0790    2.6760 C   0  0  0  0  0
    0.7640   -0.4840    1.9550 C   0  0  0  0  0
    1.8850   -1.0360   -0.1120 C   0  0  0  0  0
    1.9280   -1.0140   -1.5220 N   0  0  0  0  0
    1.7580   -1.0990    4.0360 O   0  0  0  0  0
    3.6890   -2.1160    2.5580 H   0  0  0  0  0
    1.2620   -0.4620   -2.0220 H   0  0  0  0  0
   -0.0790   -0.0350    2.4740 H   0  0  0  0  0
    1.0630   -0.5050    4.3600 H   0  0  0  0  0
   -0.0050    0.0030    0.0090 H   0  0  0  0  0
    3.7660   -2.0800    0.0930 H   0  0  0  0  0
    2.5610   -1.6230   -2.0000 H   0  0  0  0  0
  1  3  1  0  0  0
  1 14  1  0  0  0
  1  6  2  0  0  0
  2  5  2  0  0  0
  2  6  1  0  0  0
  2 13  1  0  0  0
  3  9  1  0  0  0
  3  4  2  0  0  0
  4  8  1  0  0  0
  4  5  1  0  0  0
  5 11  1  0  0  0
  6  7  1  0  0  0
  7 15  1  0  0  0
  7 10  1  0  0  0
  8 12  1  0  0  0
M  END
$$$$
