4TC
  CCTOOLS-0919241033

 80 84  0  0  1  0  0  0  0  0999 V2000
    0.5640   -5.0780   -4.2540 O   0  0  0  0  0
   -0.2780   -3.8550   -3.6170 P   0  0  0  0  0
   -1.1910   -3.1500   -4.5760 O   0  0  0  0  0
    0.8510   -2.9260   -2.9350 O   0  0  0  0  0
    1.9680   -1.9580   -3.5880 P   0  0  0  0  0
    2.8690   -1.5030   -2.3240 O   0  0  0  0  0
    3.4130   -2.5110   -1.4900 C   0  0  0  0  0
    4.2180   -1.8530   -0.3770 C   0  0  0  0  0
    3.3170   -1.0470    0.4140 O   0  0  0  0  0
    3.1270   -1.6710    1.6940 C   0  0  0  0  0
    1.7240   -1.6970    1.9970 N   0  0  0  0  0
    1.2580   -1.5990    3.3290 C   0  0  0  0  0
    1.9990   -1.4860    4.3070 O   0  0  0  0  0
   -0.1350   -1.6380    3.4770 N   0  0  0  0  0
   -1.0740   -1.7610    2.4650 C   0  0  0  0  0
   -2.2880   -1.7910    2.6430 O   0  0  0  0  0
   -0.5050   -1.8580    1.1050 C   0  0  0  0  0
    0.8190   -1.8210    0.9490 C   0  0  0  0  0
    3.7230   -3.0640    1.5890 C   0  0  0  0  0
    4.1990   -3.5470    2.8290 O   0  0  0  0  0
    4.8390   -2.8530    0.5880 C   0  0  0  0  0
    5.9550   -2.2230    1.2160 O   0  0  0  0  0
    1.4210   -0.8440   -4.4320 O   0  0  0  0  0
    2.9310   -2.9930   -4.3730 O   0  0  0  0  0
   -1.1120   -4.6110   -2.2050 C   0  0  0  0  0
   -0.3130   -5.6150   -0.9350 P   0  0  0  0  0
    0.7010   -4.8830   -0.1060 O   0  0  0  0  0
    0.2550   -6.8890   -1.7510 O   0  0  0  0  0
   -1.5390   -6.2760   -0.1210 O   0  0  0  0  0
   -1.5630   -7.2830    1.1420 P   0  0  0  0  0
   -0.8820   -8.6000    0.9090 O   0  0  0  0  0
   -0.9270   -6.3880    2.3300 O   0  0  0  0  0
   -3.1350   -7.3630    1.5140 O   0  0  0  0  0
   -3.8380   -6.1540    1.7460 C   0  0  0  0  0
   -5.2880   -6.4790    2.0760 C   0  0  0  0  0
   -6.1280   -5.2370    2.3540 C   0  0  0  0  0
   -7.4930   -5.5280    2.0570 O   0  0  0  0  0
   -5.9620   -5.0640    3.8510 C   0  0  0  0  0
   -7.0070   -4.3170    4.4410 O   0  0  0  0  0
   -5.9610   -6.5100    4.3240 C   0  0  0  0  0
   -5.3140   -7.2710    3.2860 O   0  0  0  0  0
   -5.2690   -6.7200    5.5940 N   0  0  0  0  0
   -3.9250   -6.9390    5.7550 C   0  0  0  0  0
   -3.5950   -7.0950    7.0200 N   0  0  0  0  0
   -4.7750   -6.9720    7.7100 C   0  0  0  0  0
   -5.0800   -7.0370    9.0660 C   0  0  0  0  0
   -4.0730   -7.2710   10.0180 N   0  0  0  0  0
   -6.3660   -6.8730    9.4600 N   0  0  0  0  0
   -7.2920   -6.6510    8.4970 C   0  0  0  0  0
   -7.1200   -6.5670    7.1590 N   0  0  0  0  0
   -5.8290   -6.7380    6.8410 C   0  0  0  0  0
   -1.6150   -3.7930   -1.6770 H   0  0  0  0  0
   -1.9060   -5.2380   -2.6260 H   0  0  0  0  0
    2.5930   -3.1030   -1.0730 H   0  0  0  0  0
    4.0530   -3.1610   -2.0940 H   0  0  0  0  0
    4.9640   -1.1830   -0.8160 H   0  0  0  0  0
    5.1950   -3.7740    0.1190 H   0  0  0  0  0
    3.6150   -1.0610    2.4610 H   0  0  0  0  0
    2.9910   -3.7780    1.1930 H   0  0  0  0  0
    1.2580   -1.8910   -0.0410 H   0  0  0  0  0
   -0.4940   -1.5690    4.4250 H   0  0  0  0  0
   -1.1800   -1.9560    0.2640 H   0  0  0  0  0
    3.4600   -3.4930    3.4610 H   0  0  0  0  0
    6.4880   -1.8360    0.5050 H   0  0  0  0  0
   -3.3640   -5.6260    2.5790 H   0  0  0  0  0
   -3.7780   -5.5340    0.8470 H   0  0  0  0  0
   -5.7140   -7.0900    1.2730 H   0  0  0  0  0
   -5.8410   -4.3560    1.7730 H   0  0  0  0  0
   -7.4900   -6.0550    1.2440 H   0  0  0  0  0
   -5.0070   -4.5750    4.0750 H   0  0  0  0  0
   -7.6870   -4.9510    4.7310 H   0  0  0  0  0
   -6.9720   -6.9040    4.4770 H   0  0  0  0  0
   -3.2420   -6.9740    4.9170 H   0  0  0  0  0
   -3.3190   -6.6170   10.1080 H   0  0  0  0  0
   -4.0690   -8.1330   10.5290 H   0  0  0  0  0
   -8.3110   -6.5250    8.8480 H   0  0  0  0  0
    3.6470   -2.6380   -4.9400 H   0  0  0  0  0
   -0.7490   -6.8080    3.1980 H   0  0  0  0  0
    1.1890   -7.1580   -1.6210 H   0  0  0  0  0
    1.0850   -4.9210   -5.0700 H   0  0  0  0  0
  1  2  1  0  0  0
  1 80  1  0  0  0
  2  3  2  0  0  0
  2  4  1  0  0  0
  2 25  1  0  0  0
  4  5  1  0  0  0
  5  6  1  0  0  0
  5 23  2  0  0  0
  5 24  1  0  0  0
  6  7  1  0  0  0
  7  8  1  0  0  0
  7 54  1  0  0  0
  7 55  1  0  0  0
  8  9  1  0  0  0
  8 21  1  0  0  0
  8 56  1  0  0  0
  9 10  1  0  0  0
 10 11  1  0  0  0
 10 19  1  0  0  0
 10 58  1  0  0  0
 11 12  1  0  0  0
 11 18  1  0  0  0
 12 13  2  0  0  0
 12 14  1  0  0  0
 14 15  1  0  0  0
 14 61  1  0  0  0
 15 16  2  0  0  0
 15 17  1  0  0  0
 17 18  2  0  0  0
 17 62  1  0  0  0
 18 60  1  0  0  0
 19 20  1  0  0  0
 19 21  1  0  0  0
 19 59  1  0  0  0
 20 63  1  0  0  0
 21 22  1  0  0  0
 21 57  1  0  0  0
 22 64  1  0  0  0
 24 77  1  0  0  0
 25 26  1  0  0  0
 25 52  1  0  0  0
 25 53  1  0  0  0
 26 27  2  0  0  0
 26 28  1  0  0  0
 26 29  1  0  0  0
 28 79  1  0  0  0
 29 30  1  0  0  0
 30 31  2  0  0  0
 30 32  1  0  0  0
 30 33  1  0  0  0
 32 78  1  0  0  0
 33 34  1  0  0  0
 34 35  1  0  0  0
 34 65  1  0  0  0
 34 66  1  0  0  0
 35 36  1  0  0  0
 35 41  1  0  0  0
 35 67  1  0  0  0
 36 37  1  0  0  0
 36 38  1  0  0  0
 36 68  1  0  0  0
 37 69  1  0  0  0
 38 39  1  0  0  0
 38 40  1  0  0  0
 38 70  1  0  0  0
 39 71  1  0  0  0
 40 41  1  0  0  0
 40 42  1  0  0  0
 40 72  1  0  0  0
 42 43  1  0  0  0
 42 51  1  0  0  0
 43 44  2  0  0  0
 43 73  1  0  0  0
 44 45  1  0  0  0
 45 46  1  0  0  0
 45 51  2  0  0  0
 46 47  1  0  0  0
 46 48  2  0  0  0
 47 74  1  0  0  0
 47 75  1  0  0  0
 48 49  1  0  0  0
 49 50  2  0  0  0
 49 76  1  0  0  0
 50 51  1  0  0  0
M  END
$$$$
