4TX
  CCTOOLS-0919241033

 40 40  0  0  0  0  0  0  0  0999 V2000
   -2.7900    0.9760    0.0040 C   0  0  0  0  0
   -0.2340    0.0950    0.0020 C   0  0  0  0  0
    1.1160   -0.6250    0.0010 C   0  0  0  0  0
    3.5950   -0.3130   -0.0000 C   0  0  0  0  0
   -4.0840    1.4590   -0.0000 C   0  0  0  0  0
   -5.1510    0.5790   -0.0050 C   0  0  0  0  0
   -4.9250   -0.7850   -0.0050 C   0  0  0  0  0
    4.4470    1.8840   -0.0010 O   0  0  0  0  0
    4.7070    0.7040   -0.0010 C   0  0  0  0  0
    5.9870    0.3000   -0.0020 O   0  0  0  0  0
    3.7050   -1.1890   -1.2500 C   0  0  0  0  0
    3.7060   -1.1890    1.2490 C   0  0  0  0  0
    2.2450    0.4080    0.0010 C   0  0  0  0  0
   -1.2880   -0.8690    0.0030 O   0  0  0  0  0
   -2.5610   -0.3920    0.0040 C   0  0  0  0  0
   -3.6330   -1.2720   -0.0000 C   0  0  0  0  0
   -3.3880   -2.7590    0.0000 C   0  0  0  0  0
   -4.3340    2.9450    0.0010 C   0  0  0  0  0
   -1.9570    1.6640    0.0030 H   0  0  0  0  0
   -0.3120    0.7190    0.8920 H   0  0  0  0  0
   -0.3130    0.7200   -0.8880 H   0  0  0  0  0
    1.1950   -1.2500    0.8910 H   0  0  0  0  0
    1.1940   -1.2490   -0.8890 H   0  0  0  0  0
   -6.1620    0.9580   -0.0080 H   0  0  0  0  0
   -5.7600   -1.4700   -0.0080 H   0  0  0  0  0
    6.6650    0.9890   -0.0020 H   0  0  0  0  0
    4.6660   -1.7020   -1.2500 H   0  0  0  0  0
    2.9000   -1.9250   -1.2490 H   0  0  0  0  0
    3.6250   -0.5640   -2.1400 H   0  0  0  0  0
    3.6280   -0.5650    2.1390 H   0  0  0  0  0
    2.9020   -1.9250    1.2490 H   0  0  0  0  0
    4.6680   -1.7020    1.2480 H   0  0  0  0  0
    2.1660    1.0320   -0.8890 H   0  0  0  0  0
    2.1670    1.0320    0.8910 H   0  0  0  0  0
   -3.3240   -3.1170   -1.0280 H   0  0  0  0  0
   -2.4520   -2.9730    0.5170 H   0  0  0  0  0
   -4.2090   -3.2630    0.5100 H   0  0  0  0  0
   -4.3900    3.3050   -1.0270 H   0  0  0  0  0
   -5.2730    3.1550    0.5110 H   0  0  0  0  0
   -3.5180    3.4500    0.5180 H   0  0  0  0  0
  1 15  1  0  0  0
  1 19  1  0  0  0
  2  3  1  0  0  0
  2 20  1  0  0  0
  2 21  1  0  0  0
  3 13  1  0  0  0
  3 22  1  0  0  0
  3 23  1  0  0  0
  4  9  1  0  0  0
  5  1  2  0  0  0
  6  7  2  0  0  0
  6  5  1  0  0  0
  6 24  1  0  0  0
  7 16  1  0  0  0
  7 25  1  0  0  0
  9  8  2  0  0  0
  9 10  1  0  0  0
 10 26  1  0  0  0
 11  4  1  0  0  0
 11 27  1  0  0  0
 11 28  1  0  0  0
 11 29  1  0  0  0
 12  4  1  0  0  0
 12 30  1  0  0  0
 12 31  1  0  0  0
 12 32  1  0  0  0
 13  4  1  0  0  0
 13 33  1  0  0  0
 13 34  1  0  0  0
 14  2  1  0  0  0
 15 14  1  0  0  0
 16 17  1  0  0  0
 16 15  2  0  0  0
 17 35  1  0  0  0
 17 36  1  0  0  0
 17 37  1  0  0  0
 18  5  1  0  0  0
 18 38  1  0  0  0
 18 39  1  0  0  0
 18 40  1  0  0  0
M  END
$$$$
