4UX
  CCTOOLS-0919241033

 80 83  0  0  1  0  0  0  0  0999 V2000
    8.2240   -1.4440    2.6770 N   0  0  0  0  0
    7.2270   -0.6880    2.0570 C   0  0  0  0  0
    4.9400    0.0230    1.9230 C   0  0  0  0  0
    6.5450    0.8460    0.3450 C   0  0  0  0  0
    7.5340    0.1000    0.9550 C   0  0  0  0  0
    4.6600    2.7460   -0.7320 O   0  0  0  0  0
    3.2150    0.7660   -1.0230 N   0  0  0  0  0
    4.1700   -0.6060   -2.8080 C   0  0  0  0  0
    4.4490   -0.6510   -4.3120 C   0  0  0  0  0
    5.4720   -0.8430   -2.0400 C   0  0  0  0  0
    2.1420   -0.1140   -0.5560 C   0  0  0  0  0
    0.7900    0.5690   -0.7750 C   0  0  0  0  0
    0.5610    0.7350   -2.1750 O   0  0  0  0  0
   -2.5980    0.1310    0.5830 C   0  0  0  0  0
   -6.0330    2.7680   -0.1500 O   0  0  0  0  0
   -6.4250    1.8850   -1.2210 C   0  0  0  0  0
   -6.1360    0.4650   -0.6860 C   0  0  0  0  0
   -6.2170    0.6160    0.8450 C   0  0  0  0  0
   -0.4080   -1.6170   -0.9400 C   0  0  0  0  0
    5.9240   -0.7260    2.5390 C   0  0  0  0  0
    5.2510    0.8100    0.8290 C   0  0  0  0  0
    3.9920    1.7630    0.0470 S   0  0  0  0  0
    3.0460    2.0840    1.0570 O   0  0  0  0  0
    3.6020    0.7650   -2.4360 C   0  0  0  0  0
   -0.3210   -0.2950   -0.1750 C   0  0  0  0  0
   -1.5990    0.4140   -0.2780 N   0  0  0  0  0
   -2.4370   -0.7120    1.4430 O   0  0  0  0  0
   -3.7720    0.7810    0.4880 O   0  0  0  0  0
   -4.8020    0.4250    1.4480 C   0  0  0  0  0
   -4.8430    1.4340    2.6230 C   0  0  0  0  0
   -5.6010    2.5510    2.1320 O   0  0  0  0  0
   -6.4690    2.1330    1.0710 C   0  0  0  0  0
   -1.0140   -3.3950    0.7150 C   0  0  0  0  0
   -1.9390   -4.2200    1.3260 C   0  0  0  0  0
   -3.2670   -4.1730    0.9430 C   0  0  0  0  0
   -3.6690   -3.2990   -0.0500 C   0  0  0  0  0
   -2.7430   -2.4730   -0.6600 C   0  0  0  0  0
   -1.4170   -2.5170   -0.2740 C   0  0  0  0  0
   -7.1530   -0.4810   -1.1640 N   0  0  0  0  0
   -6.7940   -1.0180   -2.4830 C   0  0  0  0  0
    8.0080   -1.9970    3.4440 H   0  0  0  0  0
    9.1330   -1.4200    2.3380 H   0  0  0  0  0
    3.9280   -0.0070    2.2970 H   0  0  0  0  0
    6.7840    1.4590   -0.5120 H   0  0  0  0  0
    8.5450    0.1290    0.5770 H   0  0  0  0  0
    3.4490   -1.3810   -2.5490 H   0  0  0  0  0
    5.1710    0.1240   -4.5710 H   0  0  0  0  0
    4.8540   -1.6280   -4.5770 H   0  0  0  0  0
    3.5220   -0.4820   -4.8590 H   0  0  0  0  0
    6.2040   -0.0870   -2.3230 H   0  0  0  0  0
    5.2790   -0.7790   -0.9690 H   0  0  0  0  0
    5.8600   -1.8330   -2.2810 H   0  0  0  0  0
    2.1700   -1.0500   -1.1150 H   0  0  0  0  0
    2.2770   -0.3210    0.5060 H   0  0  0  0  0
    0.7940    1.5450   -0.2890 H   0  0  0  0  0
    0.5450   -0.0950   -2.6720 H   0  0  0  0  0
   -7.4880    2.0000   -1.4370 H   0  0  0  0  0
   -5.8330    2.0840   -2.1140 H   0  0  0  0  0
   -5.1410    0.1390   -0.9880 H   0  0  0  0  0
   -6.9770   -0.0210    1.2980 H   0  0  0  0  0
   -0.7160   -1.4230   -1.9670 H   0  0  0  0  0
    0.5680   -2.1020   -0.9380 H   0  0  0  0  0
    5.6810   -1.3410    3.3920 H   0  0  0  0  0
    2.7270    0.9750   -3.0520 H   0  0  0  0  0
    4.3590    1.5310   -2.6060 H   0  0  0  0  0
   -0.1000   -0.4950    0.8730 H   0  0  0  0  0
   -1.7270    1.0860   -0.9650 H   0  0  0  0  0
   -4.6630   -0.5940    1.8090 H   0  0  0  0  0
   -5.3390    0.9900    3.4860 H   0  0  0  0  0
   -3.8340    1.7490    2.8870 H   0  0  0  0  0
   -7.5150    2.3400    1.2990 H   0  0  0  0  0
    0.0230   -3.4320    1.0140 H   0  0  0  0  0
   -1.6250   -4.9030    2.1020 H   0  0  0  0  0
   -3.9900   -4.8180    1.4200 H   0  0  0  0  0
   -4.7060   -3.2620   -0.3500 H   0  0  0  0  0
   -3.0570   -1.7910   -1.4370 H   0  0  0  0  0
   -7.2970   -1.2250   -0.4980 H   0  0  0  0  0
   -6.7140   -0.2000   -3.1990 H   0  0  0  0  0
   -5.8380   -1.5370   -2.4160 H   0  0  0  0  0
   -7.5630   -1.7160   -2.8130 H   0  0  0  0  0
  1 41  1  0  0  0
  1 42  1  0  0  0
  2  1  1  0  0  0
  2 20  2  0  0  0
  3 20  1  0  0  0
  3 43  1  0  0  0
  4  5  2  0  0  0
  4 21  1  0  0  0
  4 44  1  0  0  0
  5  2  1  0  0  0
  5 45  1  0  0  0
  6 22  2  0  0  0
  7 22  1  0  0  0
  7 11  1  0  0  0
  8 24  1  0  0  0
  8 46  1  0  0  0
  9  8  1  0  0  0
  9 47  1  0  0  0
  9 48  1  0  0  0
  9 49  1  0  0  0
 10  8  1  0  0  0
 10 50  1  0  0  0
 10 51  1  0  0  0
 10 52  1  0  0  0
 11 53  1  0  0  0
 11 54  1  0  0  0
 12 25  1  0  0  0
 12 11  1  0  0  0
 12 13  1  0  0  0
 12 55  1  0  0  0
 13 56  1  0  0  0
 14 26  1  0  0  0
 15 16  1  0  0  0
 16 57  1  0  0  0
 16 58  1  0  0  0
 17 39  1  0  0  0
 17 16  1  0  0  0
 17 59  1  0  0  0
 18 32  1  0  0  0
 18 17  1  0  0  0
 18 60  1  0  0  0
 19 38  1  0  0  0
 19 61  1  0  0  0
 19 62  1  0  0  0
 20 63  1  0  0  0
 21  3  2  0  0  0
 22 21  1  0  0  0
 22 23  2  0  0  0
 24  7  1  0  0  0
 24 64  1  0  0  0
 24 65  1  0  0  0
 25 19  1  0  0  0
 25 66  1  0  0  0
 26 25  1  0  0  0
 26 67  1  0  0  0
 27 14  2  0  0  0
 28 14  1  0  0  0
 29 18  1  0  0  0
 29 28  1  0  0  0
 29 68  1  0  0  0
 30 31  1  0  0  0
 30 29  1  0  0  0
 30 69  1  0  0  0
 30 70  1  0  0  0
 31 32  1  0  0  0
 32 15  1  0  0  0
 32 71  1  0  0  0
 33 34  1  0  0  0
 33 72  1  0  0  0
 34 73  1  0  0  0
 35 34  2  0  0  0
 35 74  1  0  0  0
 36 35  1  0  0  0
 36 75  1  0  0  0
 37 36  2  0  0  0
 37 38  1  0  0  0
 37 76  1  0  0  0
 38 33  2  0  0  0
 39 40  1  0  0  0
 39 77  1  0  0  0
 40 78  1  0  0  0
 40 79  1  0  0  0
 40 80  1  0  0  0
M  END
$$$$
