4UY
  CCTOOLS-0919241033

 82 85  0  0  1  0  0  0  0  0999 V2000
   -3.0120   -4.2110    0.0240 C   0  0  0  0  0
   -2.3670   -3.4080    0.9530 C   0  0  0  0  0
   -2.8490   -2.1420    1.2220 C   0  0  0  0  0
   -3.9730   -1.6750    0.5670 C   0  0  0  0  0
   -4.6180   -2.4740   -0.3590 C   0  0  0  0  0
   -4.1400   -3.7400   -0.6320 C   0  0  0  0  0
   -4.5850   -0.0590    0.9120 S   0  0  0  0  0
   -5.9620   -0.0680    0.5610 O   0  0  0  0  0
   -4.1160    0.2780    2.2110 O   0  0  0  0  0
   -3.8410    0.9830   -0.1380 N   0  0  0  0  0
   -4.4480    1.2680   -1.4410 C   0  0  0  0  0
   -5.2870    2.5430   -1.3440 C   0  0  0  0  0
   -5.8200    2.9100   -2.7300 C   0  0  0  0  0
   -6.4620    2.3100   -0.3910 C   0  0  0  0  0
   -2.5750    1.6190    0.2340 C   0  0  0  0  0
   -1.4090    0.8000   -0.3240 C   0  0  0  0  0
   -1.4440    0.8350   -1.7530 O   0  0  0  0  0
   -0.0870    1.3930    0.1690 C   0  0  0  0  0
    1.0230    0.5420   -0.2670 N   0  0  0  0  0
    2.1810    0.5400    0.4210 C   0  0  0  0  0
    2.3050    1.2450    1.4030 O   0  0  0  0  0
    3.2010   -0.2420    0.0210 O   0  0  0  0  0
    4.4190   -0.1930    0.8100 C   0  0  0  0  0
    4.3910   -1.2720    1.9140 C   0  0  0  0  0
    5.7530   -1.7420    2.0040 O   0  0  0  0  0
    6.2230   -1.8290    0.6430 C   0  0  0  0  0
    5.5790   -2.9510    0.0050 O   0  0  0  0  0
    5.5060   -2.6110   -1.3960 C   0  0  0  0  0
    5.1310   -1.1130   -1.4200 C   0  0  0  0  0
    5.6400   -0.5680   -0.0560 C   0  0  0  0  0
    5.8170   -0.4290   -2.5240 N   0  0  0  0  0
    5.0460   -0.5350   -3.7700 C   0  0  0  0  0
    0.0890    2.7980   -0.4120 C   0  0  0  0  0
    2.5480    3.2670   -0.4610 C   0  0  0  0  0
    3.6830    3.8510    0.0690 C   0  0  0  0  0
    3.5990    4.5970    1.2290 C   0  0  0  0  0
    2.3790    4.7600    1.8600 C   0  0  0  0  0
    1.2440    4.1760    1.3290 C   0  0  0  0  0
    1.3280    3.4290    0.1690 C   0  0  0  0  0
   -2.5370   -5.4550   -0.2470 O   0  0  0  0  0
   -1.3720   -5.8740    0.4660 C   0  0  0  0  0
   -1.4890   -3.7730    1.4650 H   0  0  0  0  0
   -2.3470   -1.5160    1.9450 H   0  0  0  0  0
   -5.4960   -2.1060   -0.8700 H   0  0  0  0  0
   -4.6440   -4.3640   -1.3560 H   0  0  0  0  0
   -3.6640    1.4040   -2.1850 H   0  0  0  0  0
   -5.0870    0.4340   -1.7340 H   0  0  0  0  0
   -4.6680    3.3570   -0.9650 H   0  0  0  0  0
   -6.4380    2.0960   -3.1090 H   0  0  0  0  0
   -6.4170    3.8190   -2.6610 H   0  0  0  0  0
   -4.9830    3.0760   -3.4090 H   0  0  0  0  0
   -7.0800    1.4970   -0.7700 H   0  0  0  0  0
   -6.0820    2.0490    0.5960 H   0  0  0  0  0
   -7.0590    3.2190   -0.3220 H   0  0  0  0  0
   -2.5400    2.6280   -0.1770 H   0  0  0  0  0
   -2.4980    1.6660    1.3210 H   0  0  0  0  0
   -1.4930   -0.2320    0.0160 H   0  0  0  0  0
   -1.3730    1.7250   -2.1260 H   0  0  0  0  0
   -0.0970    1.4490    1.2570 H   0  0  0  0  0
    0.9230   -0.0210   -1.0510 H   0  0  0  0  0
    4.5490    0.7970    1.2480 H   0  0  0  0  0
    4.0770   -0.8360    2.8630 H   0  0  0  0  0
    3.7250   -2.0870    1.6320 H   0  0  0  0  0
    7.3100   -1.8800    0.5790 H   0  0  0  0  0
    6.4730   -2.7680   -1.8750 H   0  0  0  0  0
    4.7380   -3.2050   -1.8910 H   0  0  0  0  0
    4.0510   -0.9920   -1.5080 H   0  0  0  0  0
    6.3460    0.2550   -0.1670 H   0  0  0  0  0
    6.7520   -0.7880   -2.6460 H   0  0  0  0  0
    4.0660   -0.0770   -3.6300 H   0  0  0  0  0
    5.5760   -0.0200   -4.5700 H   0  0  0  0  0
    4.9220   -1.5850   -4.0330 H   0  0  0  0  0
    0.1880    2.7340   -1.4950 H   0  0  0  0  0
   -0.7800    3.4060   -0.1620 H   0  0  0  0  0
    2.6120    2.6870   -1.3700 H   0  0  0  0  0
    4.6360    3.7240   -0.4240 H   0  0  0  0  0
    4.4860    5.0530    1.6440 H   0  0  0  0  0
    2.3140    5.3420    2.7670 H   0  0  0  0  0
    0.2910    4.3030    1.8220 H   0  0  0  0  0
   -0.5490   -5.1930    0.2500 H   0  0  0  0  0
   -1.5780   -5.8660    1.5360 H   0  0  0  0  0
   -1.0990   -6.8830    0.1560 H   0  0  0  0  0
  1  6  2  0  0  0
  2  3  2  0  0  0
  2  1  1  0  0  0
  2 42  1  0  0  0
  3  4  1  0  0  0
  3 43  1  0  0  0
  4  5  2  0  0  0
  4  7  1  0  0  0
  5 44  1  0  0  0
  6  5  1  0  0  0
  6 45  1  0  0  0
  7  9  2  0  0  0
  7 10  1  0  0  0
  8  7  2  0  0  0
 10 11  1  0  0  0
 11 12  1  0  0  0
 11 46  1  0  0  0
 11 47  1  0  0  0
 12 14  1  0  0  0
 12 48  1  0  0  0
 13 12  1  0  0  0
 13 49  1  0  0  0
 13 50  1  0  0  0
 13 51  1  0  0  0
 14 52  1  0  0  0
 14 53  1  0  0  0
 14 54  1  0  0  0
 15 10  1  0  0  0
 15 16  1  0  0  0
 15 55  1  0  0  0
 15 56  1  0  0  0
 16 17  1  0  0  0
 16 57  1  0  0  0
 17 58  1  0  0  0
 18 19  1  0  0  0
 18 16  1  0  0  0
 18 59  1  0  0  0
 19 20  1  0  0  0
 19 60  1  0  0  0
 20 22  1  0  0  0
 21 20  2  0  0  0
 22 23  1  0  0  0
 23 24  1  0  0  0
 23 61  1  0  0  0
 24 62  1  0  0  0
 24 63  1  0  0  0
 25 24  1  0  0  0
 26 25  1  0  0  0
 26 64  1  0  0  0
 27 26  1  0  0  0
 28 27  1  0  0  0
 28 65  1  0  0  0
 28 66  1  0  0  0
 29 28  1  0  0  0
 29 30  1  0  0  0
 29 67  1  0  0  0
 30 23  1  0  0  0
 30 26  1  0  0  0
 30 68  1  0  0  0
 31 29  1  0  0  0
 31 69  1  0  0  0
 32 31  1  0  0  0
 32 70  1  0  0  0
 32 71  1  0  0  0
 32 72  1  0  0  0
 33 18  1  0  0  0
 33 73  1  0  0  0
 33 74  1  0  0  0
 34 39  1  0  0  0
 34 75  1  0  0  0
 35 34  2  0  0  0
 35 76  1  0  0  0
 36 37  2  0  0  0
 36 35  1  0  0  0
 36 77  1  0  0  0
 37 38  1  0  0  0
 37 78  1  0  0  0
 38 39  2  0  0  0
 38 79  1  0  0  0
 39 33  1  0  0  0
 40 41  1  0  0  0
 40  1  1  0  0  0
 41 80  1  0  0  0
 41 81  1  0  0  0
 41 82  1  0  0  0
M  END
$$$$
