4UZ
  CCTOOLS-0919241033

 41 42  0  0  1  0  0  0  0  0999 V2000
   -2.3330   -1.3960   -0.3290 C   0  0  0  0  0
   -1.4660   -0.2620    0.2260 C   0  0  0  0  0
   -2.0060    1.0780   -0.2810 C   0  0  0  0  0
   -3.3720    1.2190    0.1140 O   0  0  0  0  0
   -4.2390    0.2140   -0.4150 C   0  0  0  0  0
   -3.7890   -1.1620    0.0850 C   0  0  0  0  0
   -0.0840   -0.4360   -0.2280 N   0  0  0  0  0
   -4.6200   -2.1730   -0.4890 O   0  0  0  0  0
   -1.8810   -2.6450    0.1970 O   0  0  0  0  0
   -5.6730    0.4810    0.0480 C   0  0  0  0  0
   -1.2360    2.1440    0.2780 O   0  0  0  0  0
   -6.1330    1.7110   -0.5150 O   0  0  0  0  0
    0.9310    0.0890    0.4870 C   0  0  0  0  0
    2.2010   -0.0710    0.0710 O   0  0  0  0  0
    0.7000    0.7060    1.5080 O   0  0  0  0  0
    3.2430    0.5210    0.8900 C   0  0  0  0  0
    4.5890    0.2420    0.2710 C   0  0  0  0  0
    5.2830   -0.9040    0.6140 C   0  0  0  0  0
    6.5150   -1.1630    0.0430 C   0  0  0  0  0
    7.0520   -0.2770   -0.8720 C   0  0  0  0  0
    6.3580    0.8680   -1.2160 C   0  0  0  0  0
    5.1260    1.1280   -0.6440 C   0  0  0  0  0
   -2.2610   -1.4110   -1.4170 H   0  0  0  0  0
   -1.4970   -0.2800    1.3150 H   0  0  0  0  0
   -1.9360    1.1100   -1.3680 H   0  0  0  0  0
   -4.1990    0.2350   -1.5040 H   0  0  0  0  0
   -3.8690   -1.1990    1.1710 H   0  0  0  0  0
    0.1010   -0.9280   -1.0430 H   0  0  0  0  0
   -5.5580   -2.0830   -0.2700 H   0  0  0  0  0
   -2.3890   -3.4080   -0.1110 H   0  0  0  0  0
   -6.3180   -0.3330   -0.2800 H   0  0  0  0  0
   -5.6970    0.5480    1.1360 H   0  0  0  0  0
   -1.5230    3.0250   -0.0000 H   0  0  0  0  0
   -7.0370    1.9450   -0.2630 H   0  0  0  0  0
    3.0890    1.5980    0.9520 H   0  0  0  0  0
    3.2070    0.0900    1.8910 H   0  0  0  0  0
    4.8630   -1.5960    1.3290 H   0  0  0  0  0
    7.0570   -2.0570    0.3110 H   0  0  0  0  0
    8.0150   -0.4790   -1.3180 H   0  0  0  0  0
    6.7770    1.5600   -1.9310 H   0  0  0  0  0
    4.5820    2.0200   -0.9150 H   0  0  0  0  0
  1  9  1  0  0  0
  1 23  1  0  0  0
  2  1  1  0  0  0
  2  7  1  0  0  0
  2 24  1  0  0  0
  3  2  1  0  0  0
  3 25  1  0  0  0
  4  5  1  0  0  0
  4  3  1  0  0  0
  5  6  1  0  0  0
  5 26  1  0  0  0
  6  8  1  0  0  0
  6  1  1  0  0  0
  6 27  1  0  0  0
  7 28  1  0  0  0
  8 29  1  0  0  0
  9 30  1  0  0  0
 10  5  1  0  0  0
 10 31  1  0  0  0
 10 32  1  0  0  0
 11  3  1  0  0  0
 11 33  1  0  0  0
 12 10  1  0  0  0
 12 34  1  0  0  0
 13  7  1  0  0  0
 13 14  1  0  0  0
 15 13  2  0  0  0
 16 14  1  0  0  0
 16 35  1  0  0  0
 16 36  1  0  0  0
 17 22  1  0  0  0
 17 16  1  0  0  0
 18 17  2  0  0  0
 18 37  1  0  0  0
 19 20  2  0  0  0
 19 18  1  0  0  0
 19 38  1  0  0  0
 20 21  1  0  0  0
 20 39  1  0  0  0
 21 22  2  0  0  0
 21 40  1  0  0  0
 22 41  1  0  0  0
M  END
$$$$
