4V2
  CCTOOLS-0919241033

 19 20  0  0  0  0  0  0  0  0999 V2000
    4.2560    1.3790   -0.0260 O   0  0  0  0  0
    3.2870    0.4260   -0.0150 C   0  0  0  0  0
    1.9520    0.7970   -0.0160 C   0  0  0  0  0
    3.6350   -0.9180   -0.0090 C   0  0  0  0  0
    2.6530   -1.8910    0.0020 C   0  0  0  0  0
    1.3200   -1.5330    0.0060 C   0  0  0  0  0
    0.9610   -0.1840   -0.0050 C   0  0  0  0  0
   -0.4650    0.2030   -0.0050 C   0  0  0  0  0
   -1.5230   -0.6380    0.0040 O   0  0  0  0  0
   -0.9370    1.4260   -0.0090 N   0  0  0  0  0
   -2.2230    1.3880   -0.0080 N   0  0  0  0  0
   -2.6240    0.1370   -0.0000 C   0  0  0  0  0
   -4.2940   -0.4230    0.0090 S   0  0  0  0  0
    4.5380    1.6630    0.8540 H   0  0  0  0  0
    1.6810    1.8420   -0.0250 H   0  0  0  0  0
    4.6760   -1.2040   -0.0120 H   0  0  0  0  0
    2.9300   -2.9350    0.0060 H   0  0  0  0  0
    0.5560   -2.2960    0.0130 H   0  0  0  0  0
   -4.9680    0.8160   -0.0010 H   0  0  0  0  0
  1  2  1  0  0  0
  1 14  1  0  0  0
  2  3  1  0  0  0
  2  4  2  0  0  0
  3  7  2  0  0  0
  3 15  1  0  0  0
  4  5  1  0  0  0
  4 16  1  0  0  0
  5  6  2  0  0  0
  5 17  1  0  0  0
  6  7  1  0  0  0
  6 18  1  0  0  0
  7  8  1  0  0  0
  8  9  1  0  0  0
  8 10  2  0  0  0
  9 12  1  0  0  0
 10 11  1  0  0  0
 11 12  2  0  0  0
 12 13  1  0  0  0
 13 19  1  0  0  0
M  END
$$$$
