4V3
  CCTOOLS-0919241033

 46 48  0  0  1  0  0  0  0  0999 V2000
    7.3010    0.3140    0.3390 C   0  0  0  0  0
    0.7140    0.3570   -0.4120 C   0  0  0  0  0
    3.9480   -1.3930   -0.4730 C   0  0  0  0  0
    3.1010   -0.1250   -0.3280 C   0  0  0  0  0
    3.6270    0.6990    0.8500 C   0  0  0  0  0
    5.0050    1.0090    0.6350 O   0  0  0  0  0
    5.8530   -0.1380    0.5390 C   0  0  0  0  0
    5.4170   -0.9950   -0.6510 C   0  0  0  0  0
    1.7050   -0.4950   -0.0830 N   0  0  0  0  0
    6.2260   -2.1710   -0.7150 O   0  0  0  0  0
    3.5110   -2.1320   -1.6150 O   0  0  0  0  0
    2.8770    1.9100    0.9570 O   0  0  0  0  0
    7.7460    1.0170    1.5010 O   0  0  0  0  0
   -0.5690    0.0180   -0.1860 O   0  0  0  0  0
    0.9790    1.4320   -0.9130 O   0  0  0  0  0
   -1.5840    0.9840   -0.5670 C   0  0  0  0  0
   -2.9480    0.4350   -0.2410 C   0  0  0  0  0
   -3.2480   -0.7320    0.3030 C   0  0  0  0  0
   -4.6570   -1.0740    0.5380 C   0  0  0  0  0
   -5.5670   -0.0850    0.1410 C   0  0  0  0  0
   -4.5320    1.2090   -0.4940 S   0  0  0  0  0
   -5.1960   -2.2490    1.0990 C   0  0  0  0  0
   -6.5560   -2.3960    1.2410 C   0  0  0  0  0
   -7.4270   -1.3990    0.8390 C   0  0  0  0  0
   -6.9170   -0.2340    0.2850 C   0  0  0  0  0
   -4.6210    2.3130    0.3960 O   0  0  0  0  0
   -4.7550    1.2900   -1.8950 O   0  0  0  0  0
    7.9350   -0.5580    0.1770 H   0  0  0  0  0
    7.3600    0.9720   -0.5280 H   0  0  0  0  0
    3.8430   -2.0060    0.4220 H   0  0  0  0  0
    3.1670    0.4640   -1.2430 H   0  0  0  0  0
    3.5230    0.1240    1.7710 H   0  0  0  0  0
    5.7780   -0.7230    1.4560 H   0  0  0  0  0
    5.5300   -0.4240   -1.5730 H   0  0  0  0  0
    1.4930   -1.3530    0.3170 H   0  0  0  0  0
    7.1700   -1.9930   -0.8280 H   0  0  0  0  0
    4.0100   -2.9460   -1.7710 H   0  0  0  0  0
    3.1560    2.4830    1.6840 H   0  0  0  0  0
    8.6580    1.3340    1.4450 H   0  0  0  0  0
   -1.4250    1.9120   -0.0170 H   0  0  0  0  0
   -1.5160    1.1800   -1.6370 H   0  0  0  0  0
   -2.4650   -1.4260    0.5730 H   0  0  0  0  0
   -4.5360   -3.0400    1.4190 H   0  0  0  0  0
   -6.9500   -3.3040    1.6730 H   0  0  0  0  0
   -8.4930   -1.5260    0.9560 H   0  0  0  0  0
   -7.5850    0.5530   -0.0320 H   0  0  0  0  0
  1 13  1  0  0  0
  1 28  1  0  0  0
  1 29  1  0  0  0
  2 15  2  0  0  0
  3  8  1  0  0  0
  3  4  1  0  0  0
  3 30  1  0  0  0
  4  5  1  0  0  0
  4 31  1  0  0  0
  5  6  1  0  0  0
  5 12  1  0  0  0
  5 32  1  0  0  0
  7  6  1  0  0  0
  7  1  1  0  0  0
  7 33  1  0  0  0
  8  7  1  0  0  0
  8 34  1  0  0  0
  9  2  1  0  0  0
  9  4  1  0  0  0
  9 35  1  0  0  0
 10  8  1  0  0  0
 10 36  1  0  0  0
 11  3  1  0  0  0
 11 37  1  0  0  0
 12 38  1  0  0  0
 13 39  1  0  0  0
 14 16  1  0  0  0
 14  2  1  0  0  0
 16 17  1  0  0  0
 16 40  1  0  0  0
 16 41  1  0  0  0
 17 18  2  0  0  0
 17 21  1  0  0  0
 18 19  1  0  0  0
 18 42  1  0  0  0
 19 20  2  0  0  0
 19 22  1  0  0  0
 20 25  1  0  0  0
 21 26  2  0  0  0
 21 20  1  0  0  0
 22 23  2  0  0  0
 22 43  1  0  0  0
 23 24  1  0  0  0
 23 44  1  0  0  0
 24 45  1  0  0  0
 25 24  2  0  0  0
 25 46  1  0  0  0
 27 21  2  0  0  0
M  END
$$$$
