4V5
  CCTOOLS-0919241033

 44 45  0  0  1  0  0  0  0  0999 V2000
    6.3160    1.0410   -0.2540 C   0  0  0  0  0
   -2.8050    1.2980    0.4280 C   0  0  0  0  0
   -1.9000    0.2780   -0.2710 C   0  0  0  0  0
   -2.4240   -1.1330    0.0090 C   0  0  0  0  0
   -3.7770   -1.2350   -0.4400 O   0  0  0  0  0
   -4.6770   -0.3380    0.2120 C   0  0  0  0  0
   -4.2440    1.1050   -0.0590 C   0  0  0  0  0
   -0.5330    0.4040    0.2420 N   0  0  0  0  0
   -5.1090    2.0030    0.6400 O   0  0  0  0  0
   -2.3650    2.6210    0.1140 O   0  0  0  0  0
   -6.0930   -0.5550   -0.3260 C   0  0  0  0  0
   -2.3670   -1.3930    1.4130 O   0  0  0  0  0
   -6.5410   -1.8650    0.0290 O   0  0  0  0  0
    0.5100    0.0130   -0.5170 C   0  0  0  0  0
    1.9150    0.1420    0.0110 C   0  0  0  0  0
    0.3170   -0.4420   -1.6240 O   0  0  0  0  0
    2.9030   -0.3690   -1.0400 C   0  0  0  0  0
    4.3090   -0.2400   -0.5120 C   0  0  0  0  0
    4.8790   -1.2820    0.1950 C   0  0  0  0  0
    6.1630   -1.1620    0.6900 C   0  0  0  0  0
    6.8870   -0.0010    0.4610 C   0  0  0  0  0
    5.0270    0.9210   -0.7370 C   0  0  0  0  0
    8.1550    0.1150    0.9370 O   0  0  0  0  0
    6.8760    1.9480   -0.4300 H   0  0  0  0  0
   -2.7610    1.1460    1.5060 H   0  0  0  0  0
   -1.9040    0.4630   -1.3450 H   0  0  0  0  0
   -1.8090   -1.8600   -0.5210 H   0  0  0  0  0
   -4.6630   -0.5260    1.2860 H   0  0  0  0  0
   -4.2980    1.3070   -1.1290 H   0  0  0  0  0
   -0.3790    0.7680    1.1280 H   0  0  0  0  0
   -6.0390    1.9320    0.3840 H   0  0  0  0  0
   -2.8960    3.3190    0.5220 H   0  0  0  0  0
   -6.7640    0.1880    0.1060 H   0  0  0  0  0
   -6.0890   -0.4530   -1.4110 H   0  0  0  0  0
   -2.6840   -2.2710    1.6630 H   0  0  0  0  0
   -7.4340   -2.0720   -0.2810 H   0  0  0  0  0
    2.1270    1.1890    0.2300 H   0  0  0  0  0
    2.0170   -0.4480    0.9220 H   0  0  0  0  0
    2.6920   -1.4150   -1.2590 H   0  0  0  0  0
    2.8020    0.2210   -1.9510 H   0  0  0  0  0
    4.3160   -2.1870    0.3690 H   0  0  0  0  0
    6.6080   -1.9760    1.2430 H   0  0  0  0  0
    4.5790    1.7330   -1.2900 H   0  0  0  0  0
    8.8350   -0.1950    0.3230 H   0  0  0  0  0
  1 22  2  0  0  0
  1 24  1  0  0  0
  2 25  1  0  0  0
  3  2  1  0  0  0
  3  8  1  0  0  0
  3 26  1  0  0  0
  4  3  1  0  0  0
  4 12  1  0  0  0
  4 27  1  0  0  0
  5  6  1  0  0  0
  5  4  1  0  0  0
  6  7  1  0  0  0
  6 28  1  0  0  0
  7  9  1  0  0  0
  7  2  1  0  0  0
  7 29  1  0  0  0
  8 30  1  0  0  0
  9 31  1  0  0  0
 10  2  1  0  0  0
 10 32  1  0  0  0
 11  6  1  0  0  0
 11 33  1  0  0  0
 11 34  1  0  0  0
 12 35  1  0  0  0
 13 11  1  0  0  0
 13 36  1  0  0  0
 14  8  1  0  0  0
 14 15  1  0  0  0
 15 37  1  0  0  0
 15 38  1  0  0  0
 16 14  2  0  0  0
 17 15  1  0  0  0
 17 39  1  0  0  0
 17 40  1  0  0  0
 18 17  1  0  0  0
 19 18  2  0  0  0
 19 41  1  0  0  0
 20 19  1  0  0  0
 20 42  1  0  0  0
 21 20  2  0  0  0
 21  1  1  0  0  0
 22 18  1  0  0  0
 22 43  1  0  0  0
 23 21  1  0  0  0
 23 44  1  0  0  0
M  END
$$$$
