4VO
  CCTOOLS-0919241033

 64 70  0  0  1  0  0  0  0  0999 V2000
   -0.8980    0.9270    1.6440 C   0  0  0  0  0
   -2.1180    1.8530    1.7110 C   0  0  0  0  0
   -2.0760    2.7990    0.5910 N   0  0  0  0  0
   -3.1840    3.7600    0.6710 C   0  0  0  0  0
   -2.0520    2.1350   -0.7090 C   0  0  0  0  0
   -3.3470    1.3850   -0.9860 C   0  0  0  0  0
   -3.3790    0.0280   -0.3360 C   0  0  0  0  0
   -4.5890   -0.6570   -0.3360 C   0  0  0  0  0
   -4.6870   -1.9140    0.2190 C   0  0  0  0  0
   -3.5680   -2.5110    0.7810 C   0  0  0  0  0
   -3.6540   -3.7550    1.3220 O   0  0  0  0  0
   -2.3610   -1.8300    0.7870 C   0  0  0  0  0
   -2.2720   -0.5610    0.2400 C   0  0  0  0  0
   -0.9550    0.1640    0.3130 C   0  0  0  0  0
    0.2260   -0.8060    0.2290 C   0  0  0  0  0
    1.2070   -0.3790    1.2640 N   0  0  0  0  0
    0.9720   -0.5530   -1.1040 C   0  0  0  0  0
    1.9900   -1.5310   -1.3270 O   0  0  0  0  0
    1.4920   -2.8580   -1.5110 C   0  0  0  0  0
    0.0100   -0.4960   -2.2570 C   0  0  0  0  0
   -0.9710    0.3960   -2.1440 C   0  0  0  0  0
   -0.8770    1.1810   -0.8290 C   0  0  0  0  0
    0.4690    1.8980   -0.7690 C   0  0  0  0  0
    1.5880    0.8400   -0.8260 C   0  0  0  0  0
    2.7220    1.1950   -1.7890 C   0  0  0  0  0
    2.0630    0.6700    0.6730 C   0  0  0  0  0
    3.5060    0.2370    0.7070 C   0  0  0  0  0
    3.8390   -1.0800    0.4530 C   0  0  0  0  0
    5.1630   -1.4770    0.4840 C   0  0  0  0  0
    6.1540   -0.5560    0.7700 C   0  0  0  0  0
    5.8210    0.7620    1.0240 C   0  0  0  0  0
    4.4970    1.1590    0.9880 C   0  0  0  0  0
    0.0160    1.5180    1.6910 H   0  0  0  0  0
   -0.9240    0.2220    2.4750 H   0  0  0  0  0
   -3.0290    1.2590    1.6510 H   0  0  0  0  0
   -2.1040    2.4040    2.6520 H   0  0  0  0  0
   -3.1530    4.2700    1.6340 H   0  0  0  0  0
   -3.0890    4.4910   -0.1310 H   0  0  0  0  0
   -4.1320    3.2310    0.5710 H   0  0  0  0  0
   -1.9340    2.8990   -1.4770 H   0  0  0  0  0
   -4.1830    1.9750   -0.6100 H   0  0  0  0  0
   -3.4600    1.2610   -2.0630 H   0  0  0  0  0
   -5.4620   -0.1990   -0.7780 H   0  0  0  0  0
   -5.6340   -2.4340    0.2170 H   0  0  0  0  0
   -3.4740   -4.4690    0.6950 H   0  0  0  0  0
   -1.4860   -2.2900    1.2210 H   0  0  0  0  0
   -0.0810   -1.8460    0.3450 H   0  0  0  0  0
    0.7360   -0.0380    2.0890 H   0  0  0  0  0
    2.3260   -3.5400   -1.6730 H   0  0  0  0  0
    0.9390   -3.1650   -0.6230 H   0  0  0  0  0
    0.8300   -2.8800   -2.3760 H   0  0  0  0  0
    0.1070   -1.1370   -3.1210 H   0  0  0  0  0
   -1.7350    0.5530   -2.8910 H   0  0  0  0  0
    0.5670    2.5630   -1.6270 H   0  0  0  0  0
    0.5320    2.4790    0.1510 H   0  0  0  0  0
    2.3440    1.1980   -2.8110 H   0  0  0  0  0
    3.1120    2.1830   -1.5430 H   0  0  0  0  0
    3.5190    0.4570   -1.6990 H   0  0  0  0  0
    1.9400    1.6040    1.2200 H   0  0  0  0  0
    3.0650   -1.7990    0.2290 H   0  0  0  0  0
    5.4230   -2.5060    0.2860 H   0  0  0  0  0
    7.1880   -0.8660    0.7960 H   0  0  0  0  0
    6.5950    1.4810    1.2480 H   0  0  0  0  0
    4.2370    2.1890    1.1830 H   0  0  0  0  0
  1  2  1  0  0  0
  1 33  1  0  0  0
  1 34  1  0  0  0
  2  3  1  0  0  0
  2 35  1  0  0  0
  2 36  1  0  0  0
  3  4  1  0  0  0
  4 37  1  0  0  0
  4 38  1  0  0  0
  4 39  1  0  0  0
  5  6  1  0  0  0
  5  3  1  0  0  0
  5 40  1  0  0  0
  6 41  1  0  0  0
  6 42  1  0  0  0
  7  8  1  0  0  0
  7  6  1  0  0  0
  8 43  1  0  0  0
  9  8  2  0  0  0
  9 44  1  0  0  0
 10  9  1  0  0  0
 11 10  1  0  0  0
 11 45  1  0  0  0
 12 10  2  0  0  0
 12 13  1  0  0  0
 12 46  1  0  0  0
 13  7  2  0  0  0
 14 13  1  0  0  0
 14 22  1  0  0  0
 14  1  1  0  0  0
 15 14  1  0  0  0
 15 47  1  0  0  0
 16 15  1  0  0  0
 16 26  1  0  0  0
 16 48  1  0  0  0
 17 20  1  0  0  0
 17 24  1  0  0  0
 17 15  1  0  0  0
 18 17  1  0  0  0
 19 18  1  0  0  0
 19 49  1  0  0  0
 19 50  1  0  0  0
 19 51  1  0  0  0
 20 21  2  0  0  0
 20 52  1  0  0  0
 21 22  1  0  0  0
 21 53  1  0  0  0
 22  5  1  0  0  0
 23 22  1  0  0  0
 23 54  1  0  0  0
 23 55  1  0  0  0
 24 26  1  0  0  0
 24 23  1  0  0  0
 25 24  1  0  0  0
 25 56  1  0  0  0
 25 57  1  0  0  0
 25 58  1  0  0  0
 26 27  1  0  0  0
 26 59  1  0  0  0
 27 32  2  0  0  0
 28 29  2  0  0  0
 28 27  1  0  0  0
 28 60  1  0  0  0
 29 30  1  0  0  0
 29 61  1  0  0  0
 30 31  2  0  0  0
 30 62  1  0  0  0
 31 63  1  0  0  0
 32 31  1  0  0  0
 32 64  1  0  0  0
M  END
$$$$
