4XE
  CCTOOLS-0919241033

 37 38  0  0  0  0  0  0  0  0999 V2000
   -0.5780   -0.2920   -0.5140 C   0  0  0  0  0
    0.4190    0.8120   -0.2760 C   0  0  0  0  0
    1.7810    0.2640   -0.3400 N   0  0  0  0  0
    2.0260   -0.6680    0.7710 C   0  0  0  0  0
    3.4300   -1.2600    0.6340 C   0  0  0  0  0
    4.1800    0.7310   -0.4760 C   0  0  0  0  0
   -2.8840   -1.0900   -0.7200 C   0  0  0  0  0
   -3.8810   -1.0940    0.4430 C   0  0  0  0  0
   -4.4890    0.3020    0.5920 C   0  0  0  0  0
   -3.3830    1.3120    0.9070 C   0  0  0  0  0
   -2.3810    1.3430   -0.2510 C   0  0  0  0  0
   -0.1930   -1.4240   -0.7170 O   0  0  0  0  0
    4.4230   -0.1770    0.6520 N   0  3  0  0  0
    2.7820    1.3400   -0.3490 C   0  0  0  0  0
   -1.8990   -0.0230   -0.4960 N   0  0  0  0  0
    0.3000    1.5800   -1.0400 H   0  0  0  0  0
    0.2490    1.2490    0.7080 H   0  0  0  0  0
    1.9470   -0.1340    1.7180 H   0  0  0  0  0
    1.2890   -1.4700    0.7420 H   0  0  0  0  0
    3.6200   -1.9400    1.4650 H   0  0  0  0  0
    3.5050   -1.8050   -0.3060 H   0  0  0  0  0
    4.9240    1.5270   -0.4690 H   0  0  0  0  0
    4.2500    0.1760   -1.4110 H   0  0  0  0  0
   -2.3750   -2.0530   -0.7690 H   0  0  0  0  0
   -3.4120   -0.9090   -1.6560 H   0  0  0  0  0
   -4.6720   -1.8160    0.2420 H   0  0  0  0  0
   -3.3640   -1.3670    1.3630 H   0  0  0  0  0
   -4.9840    0.5840   -0.3370 H   0  0  0  0  0
   -5.2170    0.2960    1.4040 H   0  0  0  0  0
   -3.8210    2.3020    1.0370 H   0  0  0  0  0
   -2.8720    1.0170    1.8230 H   0  0  0  0  0
   -2.8700    1.7240   -1.1470 H   0  0  0  0  0
   -1.5410    1.9860    0.0110 H   0  0  0  0  0
    4.3460    0.3350    1.5190 H   0  0  0  0  0
    5.3490   -0.5690    0.5750 H   0  0  0  0  0
    2.5950    2.0030   -1.1940 H   0  0  0  0  0
    2.7150    1.9070    0.5800 H   0  0  0  0  0
  1 12  2  0  0  0
  1  2  1  0  0  0
  2  3  1  0  0  0
  2 16  1  0  0  0
  2 17  1  0  0  0
  3 14  1  0  0  0
  3  4  1  0  0  0
  4  5  1  0  0  0
  4 18  1  0  0  0
  4 19  1  0  0  0
  5 13  1  0  0  0
  5 20  1  0  0  0
  5 21  1  0  0  0
  6 13  1  0  0  0
  6 22  1  0  0  0
  6 23  1  0  0  0
  7 15  1  0  0  0
  7 24  1  0  0  0
  7 25  1  0  0  0
  8  7  1  0  0  0
  8 26  1  0  0  0
  8 27  1  0  0  0
  9  8  1  0  0  0
  9 10  1  0  0  0
  9 28  1  0  0  0
  9 29  1  0  0  0
 10 11  1  0  0  0
 10 30  1  0  0  0
 10 31  1  0  0  0
 11 15  1  0  0  0
 11 32  1  0  0  0
 11 33  1  0  0  0
 13 34  1  0  0  0
 13 35  1  0  0  0
 14  6  1  0  0  0
 14 36  1  0  0  0
 14 37  1  0  0  0
 15  1  1  0  0  0
M  CHG  1  13   1
M  END
$$$$
