4XF
  CCTOOLS-0919241033

 26 26  0  0  1  0  0  0  0  0999 V2000
   -3.4150    1.1130    0.8870 C   0  0  0  0  0
   -3.0280    0.1910   -0.2720 C   0  0  0  0  0
   -3.7600   -1.0770   -0.1550 N   0  3  0  0  0
   -1.5460   -0.0780   -0.2250 C   0  0  0  0  0
   -1.1400   -1.2150   -0.1060 O   0  0  0  0  0
    0.6940    0.7080   -0.1670 C   0  0  0  0  0
    1.5780    1.7780   -0.1550 C   0  0  0  0  0
    2.9350    1.5350   -0.0060 C   0  0  0  0  0
    3.3620    0.2240    0.1270 C   0  0  0  0  0
    2.4230   -0.8010    0.1070 C   0  0  0  0  0
   -0.6720    0.9440   -0.3160 N   0  0  0  0  0
    2.8420   -2.1200    0.2400 N   0  0  0  0  0
    1.1340   -0.5350   -0.0420 N   0  0  0  0  0
   -4.4870    1.3080    0.8530 H   0  0  0  0  0
   -3.1630    0.6330    1.8320 H   0  0  0  0  0
   -2.8720    2.0540    0.8000 H   0  0  0  0  0
   -3.2810    0.6710   -1.2170 H   0  0  0  0  0
   -4.7530   -0.8960   -0.1860 H   0  0  0  0  0
   -3.5050   -1.6840   -0.9190 H   0  0  0  0  0
    1.2140    2.7890   -0.2620 H   0  0  0  0  0
    3.6430    2.3500    0.0060 H   0  0  0  0  0
    4.4120    0.0010    0.2440 H   0  0  0  0  0
   -0.9930    1.8430   -0.4850 H   0  0  0  0  0
    3.7850   -2.3210    0.3460 H   0  0  0  0  0
    2.1910   -2.8390    0.2270 H   0  0  0  0  0
   -3.5270   -1.5210    0.7210 H   0  0  0  0  0
  1 14  1  0  0  0
  1 15  1  0  0  0
  1 16  1  0  0  0
  2  1  1  0  0  0
  2  3  1  0  0  0
  2 17  1  0  0  0
  3 18  1  0  0  0
  3 19  1  0  0  0
  3 26  1  0  0  0
  4  2  1  0  0  0
  5  4  2  0  0  0
  6 11  1  0  0  0
  7  6  2  0  0  0
  7 20  1  0  0  0
  8  7  1  0  0  0
  8 21  1  0  0  0
  9  8  2  0  0  0
  9 10  1  0  0  0
  9 22  1  0  0  0
 10 13  2  0  0  0
 11  4  1  0  0  0
 11 23  1  0  0  0
 12 10  1  0  0  0
 12 24  1  0  0  0
 12 25  1  0  0  0
 13  6  1  0  0  0
M  CHG  1   3   1
M  END
$$$$
