523
  CCTOOLS-1004241121

 48 49  0  0  1  0  0  0  0  0999 V2000
    0.3590   -3.1420   -1.0110 N   0  3  0  0  0
   -0.6610   -3.9700   -0.1290 C   0  0  0  0  0
   -0.3520   -5.2860    0.1210 N   0  0  0  0  0
    0.7870   -5.9200   -0.3490 C   0  0  0  0  0
    1.6680   -5.2210   -1.1050 C   0  0  0  0  0
    2.9470   -5.7360   -1.6970 C   0  0  0  0  0
    1.3940   -3.7900   -1.4140 C   0  0  0  0  0
   -1.6480   -3.3630    0.2600 O   0  0  0  0  0
    0.9610   -7.2390   -0.0170 N   0  0  0  0  0
    0.0460   -1.7320   -1.2900 C   0  0  0  0  0
    0.6430   -0.8700   -0.1880 C   0  0  0  0  0
    1.9450   -0.4120   -0.8060 C   0  0  0  0  0
    1.5330   -0.2030   -2.2530 C   0  0  0  0  0
    0.5460   -1.2100   -2.5350 O   0  0  0  0  0
    2.4110    0.7780   -0.2030 O   0  0  0  0  0
    2.6850   -0.3340   -3.2330 C   0  0  0  0  0
    2.1970   -0.1340   -4.5490 O   0  0  0  0  0
    2.3460   -1.3080   -5.6530 P   0  0  0  0  0
    1.5350   -0.7550   -6.9390 O   0  0  0  0  0
    3.7590   -1.7250   -5.9430 O   0  0  0  0  0
    1.4030   -2.5000   -5.1060 O   0  0  0  0  0
    0.9740   -3.9100   -5.7670 P   0  0  0  0  0
    0.0530   -3.4930   -7.0280 O   0  0  0  0  0
    2.1020   -4.8440   -6.0920 O   0  0  0  0  0
   -0.0850   -4.4690   -4.6820 O   0  0  0  0  0
   -1.0430   -5.7700   -4.6840 P   0  0  0  0  0
   -2.0330   -5.8170   -5.8100 O   0  0  0  0  0
   -1.6840   -5.7710   -3.2000 O   0  0  0  0  0
    0.0070   -6.9980   -4.6410 O   0  0  0  0  0
   -0.9990   -5.8280    0.6860 H   0  0  0  0  0
    3.2880   -5.0530   -2.4710 H   0  0  0  0  0
    2.7770   -6.7200   -2.1280 H   0  0  0  0  0
    3.7020   -5.8130   -0.9180 H   0  0  0  0  0
    2.1340   -3.2560   -2.0330 H   0  0  0  0  0
    0.3110   -7.9020   -0.3700 H   0  0  0  0  0
    1.7300   -7.4800    0.5630 H   0  0  0  0  0
   -1.0460   -1.6650   -1.2980 H   0  0  0  0  0
    0.7810   -1.3720    0.7770 H   0  0  0  0  0
    0.0000    0.0000   -0.0010 H   0  0  0  0  0
    2.7120   -1.1890   -0.7100 H   0  0  0  0  0
    1.0640    0.7780   -2.3940 H   0  0  0  0  0
    3.3120    0.9190   -0.5310 H   0  0  0  0  0
    3.1320   -1.3300   -3.1710 H   0  0  0  0  0
    3.4540    0.4170   -3.0250 H   0  0  0  0  0
    1.9710   -0.1070   -7.5320 H   0  0  0  0  0
   -0.2830   -4.1970   -7.6240 H   0  0  0  0  0
   -2.3740   -6.4330   -2.9810 H   0  0  0  0  0
   -0.3300   -7.9150   -4.7260 H   0  0  0  0  0
  1  7  2  0  0  0
  1 10  1  0  0  0
  1  2  1  0  0  0
  2  3  1  0  0  0
  2  8  2  0  0  0
  3  4  1  0  0  0
  3 30  1  0  0  0
  4  5  2  0  0  0
  4  9  1  0  0  0
  5  6  1  0  0  0
  5  7  1  0  0  0
  6 31  1  0  0  0
  6 32  1  0  0  0
  6 33  1  0  0  0
  7 34  1  0  0  0
  9 35  1  0  0  0
  9 36  1  0  0  0
 10 14  1  0  0  0
 10 11  1  0  0  0
 10 37  1  0  0  0
 11 12  1  0  0  0
 11 38  1  0  0  0
 11 39  1  0  0  0
 12 13  1  0  0  0
 12 15  1  0  0  0
 12 40  1  0  0  0
 13 14  1  0  0  0
 13 16  1  0  0  0
 13 41  1  0  0  0
 15 42  1  0  0  0
 16 17  1  0  0  0
 16 43  1  0  0  0
 16 44  1  0  0  0
 17 18  1  0  0  0
 18 20  2  0  0  0
 18 19  1  0  0  0
 18 21  1  0  0  0
 19 45  1  0  0  0
 21 22  1  0  0  0
 22 24  2  0  0  0
 22 25  1  0  0  0
 22 23  1  0  0  0
 23 46  1  0  0  0
 25 26  1  0  0  0
 26 27  2  0  0  0
 26 29  1  0  0  0
 26 28  1  0  0  0
 28 47  1  0  0  0
 29 48  1  0  0  0
M  CHG  1   1   1
M  END
$$$$
