52P
  CCTOOLS-0919241034

 37 40  0  0  0  0  0  0  0  0999 V2000
   -6.9810   -1.9600    0.1360 F   0  0  0  0  0
   -6.0500   -0.9940   -0.0250 C   0  0  0  0  0
   -5.7730   -0.5050   -1.2900 C   0  0  0  0  0
   -4.8220    0.4820   -1.4590 C   0  0  0  0  0
   -4.1410    0.9850   -0.3580 C   0  0  0  0  0
   -2.9280    2.2450   -0.5700 S   0  0  0  0  0
   -1.4100    1.3660   -0.3940 C   0  0  0  0  0
   -0.1920    2.0770   -0.3910 C   0  0  0  0  0
    0.9830    1.4060   -0.2550 C   0  0  0  0  0
    0.9600    0.0070   -0.1210 C   0  0  0  0  0
    2.1470   -0.7260    0.0210 C   0  0  0  0  0
    3.4630   -0.0520    0.0340 C   0  0  0  0  0
    4.0160    0.3840    1.2410 C   0  0  0  0  0
    3.1600    0.1350    2.7300 CL  0  0  0  0  0
    5.2450    1.0130    1.2450 C   0  0  0  0  0
    5.9290    1.2120    0.0590 C   0  0  0  0  0
    5.3870    0.7830   -1.1390 C   0  0  0  0  0
    4.1620    0.1470   -1.1590 C   0  0  0  0  0
    3.4840   -0.3910   -2.6640 CL  0  0  0  0  0
    2.0450   -2.1310    0.1510 C   0  0  0  0  0
    3.0530   -2.8130    0.2780 O   0  0  0  0  0
    0.8330   -2.7090    0.1350 N   0  0  0  0  0
   -0.2600   -2.0110    0.0020 C   0  0  0  0  0
   -0.2370   -0.6610   -0.1270 N   0  0  0  0  0
   -1.4300    0.0600   -0.2630 N   0  0  0  0  0
   -4.4200    0.4930    0.9130 C   0  0  0  0  0
   -3.7610    0.9800    1.9870 F   0  0  0  0  0
   -5.3780   -0.4910    1.0770 C   0  0  0  0  0
   -6.3020   -0.8950   -2.1470 H   0  0  0  0  0
   -4.6070    0.8630   -2.4470 H   0  0  0  0  0
   -0.1920    3.1520   -0.4960 H   0  0  0  0  0
    1.9220    1.9410   -0.2520 H   0  0  0  0  0
    5.6740    1.3500    2.1780 H   0  0  0  0  0
    6.8900    1.7050    0.0690 H   0  0  0  0  0
    5.9260    0.9420   -2.0620 H   0  0  0  0  0
   -1.2110   -2.5220   -0.0050 H   0  0  0  0  0
   -5.5950   -0.8740    2.0630 H   0  0  0  0  0
  2  1  1  0  0  0
  2  3  1  0  0  0
  3 29  1  0  0  0
  4  3  2  0  0  0
  4 30  1  0  0  0
  5  4  1  0  0  0
  6  5  1  0  0  0
  6  7  1  0  0  0
  7 25  2  0  0  0
  8  7  1  0  0  0
  8  9  2  0  0  0
  8 31  1  0  0  0
  9 10  1  0  0  0
  9 32  1  0  0  0
 10 11  2  0  0  0
 10 24  1  0  0  0
 11 20  1  0  0  0
 12 11  1  0  0  0
 12 13  1  0  0  0
 13 14  1  0  0  0
 15 13  2  0  0  0
 15 33  1  0  0  0
 16 15  1  0  0  0
 16 34  1  0  0  0
 17 16  2  0  0  0
 17 18  1  0  0  0
 17 35  1  0  0  0
 18 12  2  0  0  0
 19 18  1  0  0  0
 20 21  2  0  0  0
 20 22  1  0  0  0
 23 22  2  0  0  0
 23 36  1  0  0  0
 24 23  1  0  0  0
 25 24  1  0  0  0
 26  5  2  0  0  0
 26 28  1  0  0  0
 27 26  1  0  0  0
 28  2  2  0  0  0
 28 37  1  0  0  0
M  END
$$$$
