555
  CCTOOLS-0919241034

 33 35  0  0  0  0  0  0  0  0999 V2000
    0.3500   -1.0270    0.0390 C   0  0  0  0  0
   -0.4970   -2.0340    0.4940 C   0  0  0  0  0
   -0.0480   -3.3540    0.5450 C   0  0  0  0  0
    1.2560   -3.6840    0.1400 C   0  0  0  0  0
    2.1170   -2.6600   -0.3220 C   0  0  0  0  0
    1.6480   -1.3370   -0.3670 C   0  0  0  0  0
    3.4210   -2.9900   -0.7270 C   0  0  0  0  0
    3.8690   -4.3100   -0.6760 C   0  0  0  0  0
    3.0230   -5.3170   -0.2210 C   0  0  0  0  0
    1.7240   -5.0070    0.1850 C   0  0  0  0  0
    0.8990   -6.1100    0.6490 C   0  0  0  0  0
    0.9030   -6.4540    1.9970 C   0  0  0  0  0
    0.1110   -7.5120    2.4440 C   0  0  0  0  0
   -0.6810   -8.2210    1.5400 C   0  0  0  0  0
   -0.6800   -7.8710    0.1900 C   0  0  0  0  0
    0.1110   -6.8130   -0.2570 C   0  0  0  0  0
   -1.4530   -9.2530    1.9750 O   0  0  0  0  0
    4.3660   -1.9900   -1.2150 C   0  0  0  0  0
    5.2950   -2.2650   -2.0810 N   0  0  0  0  0
    6.0320   -1.1080   -2.3440 O   0  0  0  0  0
   -0.0000    0.0000   -0.0000 H   0  0  0  0  0
   -1.5070   -1.7920    0.8090 H   0  0  0  0  0
   -0.7440   -4.1080    0.9070 H   0  0  0  0  0
    2.2780   -0.5220   -0.7150 H   0  0  0  0  0
    4.8790   -4.5660   -0.9890 H   0  0  0  0  0
    3.3920   -6.3400   -0.1890 H   0  0  0  0  0
    1.5150   -5.9120    2.7140 H   0  0  0  0  0
    0.1150   -7.7810    3.4970 H   0  0  0  0  0
   -1.2950   -8.4200   -0.5190 H   0  0  0  0  0
    0.1010   -6.5540   -1.3130 H   0  0  0  0  0
   -0.8950   -9.9730    2.3090 H   0  0  0  0  0
    4.2700   -0.9570   -0.8160 H   0  0  0  0  0
    6.6850   -1.4340   -2.9870 H   0  0  0  0  0
  1  6  2  0  0  0
  1  2  1  0  0  0
  1 21  1  0  0  0
  2  3  2  0  0  0
  2 22  1  0  0  0
  3  4  1  0  0  0
  3 23  1  0  0  0
  4  5  1  0  0  0
  4 10  2  0  0  0
  5  6  1  0  0  0
  5  7  2  0  0  0
  6 24  1  0  0  0
  7 18  1  0  0  0
  7  8  1  0  0  0
  8  9  2  0  0  0
  8 25  1  0  0  0
  9 10  1  0  0  0
  9 26  1  0  0  0
 10 11  1  0  0  0
 11 16  2  0  0  0
 11 12  1  0  0  0
 12 13  2  0  0  0
 12 27  1  0  0  0
 13 14  1  0  0  0
 13 28  1  0  0  0
 14 15  2  0  0  0
 14 17  1  0  0  0
 15 16  1  0  0  0
 15 29  1  0  0  0
 16 30  1  0  0  0
 17 31  1  0  0  0
 18 19  2  0  0  0
 18 32  1  0  0  0
 19 20  1  0  0  0
 20 33  1  0  0  0
M  END
$$$$
