5AL
  CCTOOLS-0919241035

 47 49  0  0  1  0  0  0  0  0999 V2000
    5.6370   -0.7830   -0.2440 C   0  0  0  0  0
    7.8950   -1.4480   -0.8490 N   0  0  0  0  0
    6.1020   -0.3860    0.7980 O   0  0  0  0  0
    3.5460    0.4330    0.4640 P   0  0  0  0  0
   -6.8090   -1.4820   -0.5510 N   0  0  0  0  0
   -6.4480   -0.3610   -1.1470 C   0  0  0  0  0
   -5.2310    0.1300   -1.0520 N   0  0  0  0  0
   -4.3020   -0.4970   -0.3380 C   0  0  0  0  0
   -4.6360   -1.6950    0.3170 C   0  0  0  0  0
   -5.9490   -2.1780    0.1850 C   0  0  0  0  0
   -6.3370   -3.3520    0.8070 N   0  0  0  0  0
   -3.5240   -2.1210    0.9630 N   0  0  0  0  0
   -2.5530   -1.2810    0.7520 C   0  0  0  0  0
   -2.9820   -0.2620   -0.0450 N   0  0  0  0  0
    6.4730   -1.6320   -1.1670 C   0  0  0  0  0
    6.0960   -3.1040   -0.9860 C   0  0  0  0  0
   -2.1810    0.8750   -0.5050 C   0  0  0  0  0
    3.3310   -0.3840    1.8340 O   0  0  0  0  0
   -2.3340    2.0770    0.4630 C   0  0  0  0  0
   -3.4740    2.8660    0.1190 O   0  0  0  0  0
    4.2980    1.6770    0.7440 O   0  0  0  0  0
   -1.0230    2.8610    0.2150 C   0  0  0  0  0
   -1.2470    3.9350   -0.7020 O   0  0  0  0  0
    4.3750   -0.4720   -0.5780 O   0  0  0  0  0
   -0.0690    1.8180   -0.4000 C   0  0  0  0  0
   -0.7730    0.5640   -0.4410 O   0  0  0  0  0
    1.1850    1.6850    0.4670 C   0  0  0  0  0
    2.1130    0.8040   -0.1700 O   0  0  0  0  0
    8.0900   -1.7170    0.1040 H   0  0  0  0  0
   -7.1790    0.1740   -1.7360 H   0  0  0  0  0
   -5.7000   -3.8510    1.3410 H   0  0  0  0  0
   -7.2460   -3.6760    0.7080 H   0  0  0  0  0
   -1.5530   -1.3780    1.1500 H   0  0  0  0  0
    5.0410   -3.2410   -1.2220 H   0  0  0  0  0
    6.7010   -3.7190   -1.6530 H   0  0  0  0  0
    6.2800   -3.4010    0.0470 H   0  0  0  0  0
   -2.4660    1.1600   -1.5180 H   0  0  0  0  0
    2.8440   -1.2130    1.7250 H   0  0  0  0  0
   -2.3950    1.7380    1.4970 H   0  0  0  0  0
   -3.6120    3.6300    0.6960 H   0  0  0  0  0
   -0.6200    3.2390    1.1550 H   0  0  0  0  0
   -1.8850    4.5910   -0.3900 H   0  0  0  0  0
    0.2070    2.1190   -1.4110 H   0  0  0  0  0
    1.6440    2.6650    0.5960 H   0  0  0  0  0
    0.9110    1.2810    1.4420 H   0  0  0  0  0
    8.4790   -1.9570   -1.4950 H   0  0  0  0  0
    6.2900   -1.3350   -2.2000 H   0  0  0  0  0
  1  3  2  0  0  0
  2 29  1  0  0  0
  2 46  1  0  0  0
  4 28  1  0  0  0
  4 18  1  0  0  0
  6  5  2  0  0  0
  6 30  1  0  0  0
  7  6  1  0  0  0
  8  7  2  0  0  0
  8  9  1  0  0  0
  9 10  2  0  0  0
 10  5  1  0  0  0
 10 11  1  0  0  0
 11 31  1  0  0  0
 11 32  1  0  0  0
 12  9  1  0  0  0
 13 12  2  0  0  0
 13 33  1  0  0  0
 14  8  1  0  0  0
 14 13  1  0  0  0
 15  1  1  0  0  0
 15  2  1  0  0  0
 15 47  1  0  0  0
 16 15  1  0  0  0
 16 34  1  0  0  0
 16 35  1  0  0  0
 16 36  1  0  0  0
 17 14  1  0  0  0
 17 37  1  0  0  0
 18 38  1  0  0  0
 19 17  1  0  0  0
 19 39  1  0  0  0
 20 19  1  0  0  0
 20 40  1  0  0  0
 21  4  2  0  0  0
 22 19  1  0  0  0
 22 25  1  0  0  0
 22 41  1  0  0  0
 23 22  1  0  0  0
 23 42  1  0  0  0
 24  1  1  0  0  0
 24  4  1  0  0  0
 25 26  1  0  0  0
 25 43  1  0  0  0
 26 17  1  0  0  0
 27 25  1  0  0  0
 27 28  1  0  0  0
 27 44  1  0  0  0
 27 45  1  0  0  0
M  END
$$$$
