5B5
  CCTOOLS-0919241035

 88 91  0  0  1  0  0  0  0  0999 V2000
   -7.4050    1.5650    1.2010 C   0  0  0  0  0
   -7.6680    0.2120    1.0400 C   0  0  0  0  0
   -6.6310   -0.7000    1.0750 C   0  0  0  0  0
   -5.3330   -0.2670    1.2700 C   0  0  0  0  0
   -5.0680    1.0810    1.4310 C   0  0  0  0  0
   -6.1010    1.9970    1.3970 C   0  0  0  0  0
   -4.0130   -1.4330    1.3140 S   0  0  0  0  0
   -3.0240   -0.8870    2.1750 O   0  0  0  0  0
   -4.6090   -2.7060    1.5230 O   0  0  0  0  0
   -3.3440   -1.4740   -0.2000 N   0  0  0  0  0
   -3.7620   -2.5000   -1.1590 C   0  0  0  0  0
   -4.4820   -1.8370   -2.3350 C   0  0  0  0  0
   -4.8440   -2.8980   -3.3750 C   0  0  0  0  0
   -5.7580   -1.1570   -1.8340 C   0  0  0  0  0
   -2.3340   -0.4840   -0.5810 C   0  0  0  0  0
   -0.9370   -1.0630   -0.3470 C   0  0  0  0  0
   -0.7290   -2.1720   -1.2230 O   0  0  0  0  0
    0.1150    0.0120   -0.6260 C   0  0  0  0  0
    1.4430   -0.5050   -0.2870 N   0  0  0  0  0
    2.4350    0.3480    0.0380 C   0  0  0  0  0
    2.2280    1.5450    0.0500 O   0  0  0  0  0
    3.6560   -0.1270    0.3490 O   0  0  0  0  0
    4.6760    0.8490    0.6890 C   0  0  0  0  0
    5.7780    2.0820    2.5360 C   0  0  0  0  0
    7.0170    1.4740    2.1790 O   0  0  0  0  0
    7.1930    1.1870    0.7910 C   0  0  0  0  0
    8.3210    0.2750    0.7050 O   0  0  0  0  0
    7.8470   -1.0050    1.1640 C   0  0  0  0  0
    6.3310   -1.0580    0.8760 C   0  0  0  0  0
    6.0300    0.3230    0.2620 C   0  0  0  0  0
    0.0770    0.3900   -2.1080 C   0  0  0  0  0
    2.3420    1.2780   -2.6950 C   0  0  0  0  0
    3.2110    2.3280   -2.9310 C   0  0  0  0  0
    2.7640    3.6320   -2.8310 C   0  0  0  0  0
    1.4470    3.8860   -2.4950 C   0  0  0  0  0
    0.5780    2.8380   -2.2590 C   0  0  0  0  0
    1.0260    1.5330   -2.3590 C   0  0  0  0  0
   -8.4220    2.4650    1.1620 O   0  0  0  0  0
   -8.0780    3.8410    1.3350 C   0  0  0  0  0
    4.6440    1.1070    2.1970 C   0  0  0  0  0
    6.0240   -2.1280   -0.0830 N   0  0  0  0  0
    5.8310   -3.4110    0.6050 C   0  0  0  0  0
    5.5140   -4.4980   -0.4240 C   0  0  0  0  0
   -8.6820   -0.1270    0.8880 H   0  0  0  0  0
   -6.8350   -1.7530    0.9500 H   0  0  0  0  0
   -4.0540    1.4170    1.5830 H   0  0  0  0  0
   -5.8940    3.0500    1.5230 H   0  0  0  0  0
   -2.8850   -3.0340   -1.5250 H   0  0  0  0  0
   -4.4370   -3.2020   -0.6690 H   0  0  0  0  0
   -3.8280   -1.0920   -2.7880 H   0  0  0  0  0
   -5.4980   -3.6430   -2.9220 H   0  0  0  0  0
   -5.3570   -2.4250   -4.2130 H   0  0  0  0  0
   -3.9350   -3.3820   -3.7320 H   0  0  0  0  0
   -6.3490   -1.8720   -1.2610 H   0  0  0  0  0
   -5.4940   -0.3120   -1.1980 H   0  0  0  0  0
   -6.3400   -0.8040   -2.6850 H   0  0  0  0  0
   -2.4500   -0.2330   -1.6360 H   0  0  0  0  0
   -2.4600    0.4150    0.0220 H   0  0  0  0  0
   -0.8510   -1.3960    0.6880 H   0  0  0  0  0
   -0.7910   -1.9490   -2.1620 H   0  0  0  0  0
   -0.0970    0.8940   -0.0210 H   0  0  0  0  0
    1.6090   -1.4600   -0.2970 H   0  0  0  0  0
    4.4710    1.7800    0.1620 H   0  0  0  0  0
    5.7690    2.2960    3.6050 H   0  0  0  0  0
    5.6450    3.0070    1.9750 H   0  0  0  0  0
    7.3460    2.0920    0.2020 H   0  0  0  0  0
    8.3550   -1.8040    0.6250 H   0  0  0  0  0
    8.0280   -1.1050    2.2340 H   0  0  0  0  0
    5.7690   -1.1970    1.8000 H   0  0  0  0  0
    6.0770    0.2620   -0.8250 H   0  0  0  0  0
    0.3760   -0.4690   -2.7100 H   0  0  0  0  0
   -0.9340    0.6900   -2.3810 H   0  0  0  0  0
    2.6910    0.2600   -2.7780 H   0  0  0  0  0
    4.2400    2.1280   -3.1940 H   0  0  0  0  0
    3.4420    4.4510   -3.0150 H   0  0  0  0  0
    1.0980    4.9050   -2.4150 H   0  0  0  0  0
   -0.4500    3.0370   -1.9970 H   0  0  0  0  0
   -8.9800    4.4510    1.2830 H   0  0  0  0  0
   -7.6040    3.9770    2.3070 H   0  0  0  0  0
   -7.3870    4.1450    0.5490 H   0  0  0  0  0
    3.6850    1.5450    2.4760 H   0  0  0  0  0
    4.7910    0.1690    2.7340 H   0  0  0  0  0
    6.7430   -2.1990   -0.7870 H   0  0  0  0  0
    6.7400   -3.6750    1.1440 H   0  0  0  0  0
    5.0030   -3.3250    1.3090 H   0  0  0  0  0
    4.6040   -4.2340   -0.9630 H   0  0  0  0  0
    6.3410   -4.5840   -1.1290 H   0  0  0  0  0
    5.3700   -5.4510    0.0860 H   0  0  0  0  0
  1  2  1  0  0  0
  2  3  2  0  0  0
  2 44  1  0  0  0
  3 45  1  0  0  0
  4  3  1  0  0  0
  4  7  1  0  0  0
  5  4  2  0  0  0
  5 46  1  0  0  0
  6  1  2  0  0  0
  6  5  1  0  0  0
  6 47  1  0  0  0
  7  9  2  0  0  0
  7 10  1  0  0  0
  8  7  2  0  0  0
 10 15  1  0  0  0
 10 11  1  0  0  0
 11 12  1  0  0  0
 11 48  1  0  0  0
 11 49  1  0  0  0
 12 14  1  0  0  0
 12 50  1  0  0  0
 13 12  1  0  0  0
 13 51  1  0  0  0
 13 52  1  0  0  0
 13 53  1  0  0  0
 14 54  1  0  0  0
 14 55  1  0  0  0
 14 56  1  0  0  0
 15 16  1  0  0  0
 15 57  1  0  0  0
 15 58  1  0  0  0
 16 17  1  0  0  0
 16 59  1  0  0  0
 17 60  1  0  0  0
 18 19  1  0  0  0
 18 16  1  0  0  0
 18 61  1  0  0  0
 19 20  1  0  0  0
 19 62  1  0  0  0
 20 22  1  0  0  0
 21 20  2  0  0  0
 22 23  1  0  0  0
 23 40  1  0  0  0
 23 63  1  0  0  0
 24 64  1  0  0  0
 24 65  1  0  0  0
 25 24  1  0  0  0
 26 25  1  0  0  0
 26 66  1  0  0  0
 27 26  1  0  0  0
 28 27  1  0  0  0
 28 67  1  0  0  0
 28 68  1  0  0  0
 29 28  1  0  0  0
 29 30  1  0  0  0
 29 69  1  0  0  0
 30 23  1  0  0  0
 30 26  1  0  0  0
 30 70  1  0  0  0
 31 18  1  0  0  0
 31 71  1  0  0  0
 31 72  1  0  0  0
 32 37  1  0  0  0
 32 73  1  0  0  0
 33 32  2  0  0  0
 33 74  1  0  0  0
 34 35  2  0  0  0
 34 33  1  0  0  0
 34 75  1  0  0  0
 35 36  1  0  0  0
 35 76  1  0  0  0
 36 37  2  0  0  0
 36 77  1  0  0  0
 37 31  1  0  0  0
 38  1  1  0  0  0
 38 39  1  0  0  0
 39 78  1  0  0  0
 39 79  1  0  0  0
 39 80  1  0  0  0
 40 24  1  0  0  0
 40 81  1  0  0  0
 40 82  1  0  0  0
 41 29  1  0  0  0
 41 83  1  0  0  0
 42 41  1  0  0  0
 42 84  1  0  0  0
 42 85  1  0  0  0
 43 42  1  0  0  0
 43 86  1  0  0  0
 43 87  1  0  0  0
 43 88  1  0  0  0
M  END
$$$$
