5B7
  CCTOOLS-0919241035

 84 87  0  0  1  0  0  0  0  0999 V2000
    7.3760   -0.9810    1.7880 C   0  0  0  0  0
    7.5740    0.1460    1.0040 C   0  0  0  0  0
    6.5050    0.9590    0.6820 C   0  0  0  0  0
    5.2380    0.6500    1.1400 C   0  0  0  0  0
    5.0370   -0.4730    1.9220 C   0  0  0  0  0
    6.1030   -1.2890    2.2460 C   0  0  0  0  0
    3.8760    1.6900    0.7280 S   0  0  0  0  0
    2.8900    1.4760    1.7290 O   0  0  0  0  0
    4.4220    2.9690    0.4360 O   0  0  0  0  0
    3.2360    1.1210   -0.6890 N   0  0  0  0  0
    3.7300    1.6270   -1.9720 C   0  0  0  0  0
    4.8430    0.7120   -2.4860 C   0  0  0  0  0
    4.2760   -0.6850   -2.7460 C   0  0  0  0  0
    5.4120    1.2830   -3.7870 C   0  0  0  0  0
    2.1750    0.1110   -0.6590 C   0  0  0  0  0
    0.8110    0.8010   -0.7220 C   0  0  0  0  0
    0.6690    1.4620   -1.9810 O   0  0  0  0  0
   -0.2970   -0.2420   -0.5660 C   0  0  0  0  0
   -1.5970    0.4310   -0.5060 N   0  0  0  0  0
   -2.6360   -0.1650    0.1110 C   0  0  0  0  0
   -2.4950   -1.2600    0.6180 O   0  0  0  0  0
   -3.8310    0.4540    0.1660 O   0  0  0  0  0
   -4.9050   -0.2470    0.8470 C   0  0  0  0  0
   -4.8970    0.1360    2.3280 C   0  0  0  0  0
   -7.2860   -0.0930    2.3960 O   0  0  0  0  0
   -7.4380   -0.3930    1.0070 C   0  0  0  0  0
   -8.5130    0.4560    0.5230 O   0  0  0  0  0
   -7.9720    1.7870    0.4310 C   0  0  0  0  0
   -6.4540    1.6450    0.1900 C   0  0  0  0  0
   -6.2260    0.1210    0.2040 C   0  0  0  0  0
   -0.2710   -1.1960   -1.7620 C   0  0  0  0  0
   -2.5780   -2.1390   -1.9980 C   0  0  0  0  0
   -3.5020   -3.1490   -1.8080 C   0  0  0  0  0
   -3.1270   -4.3170   -1.1690 C   0  0  0  0  0
   -1.8290   -4.4740   -0.7210 C   0  0  0  0  0
   -0.9050   -3.4630   -0.9110 C   0  0  0  0  0
   -1.2800   -2.2960   -1.5490 C   0  0  0  0  0
    8.4250   -1.7860    2.1020 O   0  0  0  0  0
    9.7070   -1.4070    1.5960 C   0  0  0  0  0
   -6.0930    2.1960   -1.0790 O   0  0  0  0  0
   -5.7160    3.5730   -1.0280 C   0  0  0  0  0
   -6.0850   -0.5590    3.0050 C   0  0  0  0  0
    8.5640    0.3880    0.6470 H   0  0  0  0  0
    6.6590    1.8370    0.0720 H   0  0  0  0  0
    4.0460   -0.7110    2.2780 H   0  0  0  0  0
    5.9450   -2.1660    2.8560 H   0  0  0  0  0
    2.9130    1.6460   -2.6930 H   0  0  0  0  0
    4.1210    2.6350   -1.8380 H   0  0  0  0  0
    5.6350    0.6500   -1.7400 H   0  0  0  0  0
    3.4020   -0.6070   -3.3930 H   0  0  0  0  0
    5.0340   -1.3000   -3.2320 H   0  0  0  0  0
    3.9890   -1.1430   -1.8000 H   0  0  0  0  0
    5.8150    2.2780   -3.6010 H   0  0  0  0  0
    6.2050    0.6310   -4.1530 H   0  0  0  0  0
    4.6190    1.3450   -4.5330 H   0  0  0  0  0
    2.2840   -0.5560   -1.5150 H   0  0  0  0  0
    2.2480   -0.4660    0.2630 H   0  0  0  0  0
    0.7370    1.5330    0.0830 H   0  0  0  0  0
    0.7250    0.8710   -2.7440 H   0  0  0  0  0
   -0.1380   -0.8070    0.3530 H   0  0  0  0  0
   -1.7090    1.3050   -0.9110 H   0  0  0  0  0
   -4.7490   -1.3220    0.7530 H   0  0  0  0  0
   -3.9660   -0.1950    2.7890 H   0  0  0  0  0
   -4.9950    1.2170    2.4300 H   0  0  0  0  0
   -7.6370   -1.4510    0.8360 H   0  0  0  0  0
   -8.4320    2.3180   -0.4020 H   0  0  0  0  0
   -8.1540    2.3260    1.3610 H   0  0  0  0  0
   -5.8910    2.1240    0.9910 H   0  0  0  0  0
   -6.2630   -0.2670   -0.8140 H   0  0  0  0  0
   -0.5180   -0.6470   -2.6700 H   0  0  0  0  0
    0.7240   -1.6300   -1.8590 H   0  0  0  0  0
   -2.8690   -1.2280   -2.5000 H   0  0  0  0  0
   -4.5160   -3.0260   -2.1580 H   0  0  0  0  0
   -3.8490   -5.1060   -1.0210 H   0  0  0  0  0
   -1.5370   -5.3860   -0.2220 H   0  0  0  0  0
    0.1090   -3.5860   -0.5610 H   0  0  0  0  0
    9.6740   -1.3810    0.5070 H   0  0  0  0  0
    9.9700   -0.4200    1.9760 H   0  0  0  0  0
   10.4530   -2.1330    1.9190 H   0  0  0  0  0
   -6.5490    4.1640   -0.6470 H   0  0  0  0  0
   -4.8560    3.6910   -0.3700 H   0  0  0  0  0
   -5.4570    3.9160   -2.0300 H   0  0  0  0  0
   -6.0020   -1.6380    2.8730 H   0  0  0  0  0
   -6.0950   -0.3170    4.0670 H   0  0  0  0  0
  1  6  1  0  0  0
  2  1  2  0  0  0
  2  3  1  0  0  0
  2 43  1  0  0  0
  3  4  2  0  0  0
  3 44  1  0  0  0
  4  5  1  0  0  0
  4  7  1  0  0  0
  5 45  1  0  0  0
  6  5  2  0  0  0
  6 46  1  0  0  0
  7  9  2  0  0  0
  7 10  1  0  0  0
  8  7  2  0  0  0
 10 15  1  0  0  0
 10 11  1  0  0  0
 11 12  1  0  0  0
 11 47  1  0  0  0
 11 48  1  0  0  0
 12 14  1  0  0  0
 12 49  1  0  0  0
 13 12  1  0  0  0
 13 50  1  0  0  0
 13 51  1  0  0  0
 13 52  1  0  0  0
 14 53  1  0  0  0
 14 54  1  0  0  0
 14 55  1  0  0  0
 15 16  1  0  0  0
 15 56  1  0  0  0
 15 57  1  0  0  0
 16 17  1  0  0  0
 16 58  1  0  0  0
 17 59  1  0  0  0
 18 19  1  0  0  0
 18 16  1  0  0  0
 18 60  1  0  0  0
 19 20  1  0  0  0
 19 61  1  0  0  0
 20 22  1  0  0  0
 21 20  2  0  0  0
 22 23  1  0  0  0
 23 24  1  0  0  0
 23 62  1  0  0  0
 24 42  1  0  0  0
 24 63  1  0  0  0
 24 64  1  0  0  0
 25 42  1  0  0  0
 26 25  1  0  0  0
 26 65  1  0  0  0
 27 26  1  0  0  0
 28 27  1  0  0  0
 28 66  1  0  0  0
 28 67  1  0  0  0
 29 28  1  0  0  0
 29 30  1  0  0  0
 29 68  1  0  0  0
 30 23  1  0  0  0
 30 26  1  0  0  0
 30 69  1  0  0  0
 31 18  1  0  0  0
 31 70  1  0  0  0
 31 71  1  0  0  0
 32 37  1  0  0  0
 32 72  1  0  0  0
 33 32  2  0  0  0
 33 73  1  0  0  0
 34 35  2  0  0  0
 34 33  1  0  0  0
 34 74  1  0  0  0
 35 36  1  0  0  0
 35 75  1  0  0  0
 36 37  2  0  0  0
 36 76  1  0  0  0
 37 31  1  0  0  0
 38  1  1  0  0  0
 38 39  1  0  0  0
 39 77  1  0  0  0
 39 78  1  0  0  0
 39 79  1  0  0  0
 40 29  1  0  0  0
 41 40  1  0  0  0
 41 80  1  0  0  0
 41 81  1  0  0  0
 41 82  1  0  0  0
 42 83  1  0  0  0
 42 84  1  0  0  0
M  END
$$$$
