5B8
  CCTOOLS-0919241035

105109  0  0  1  0  0  0  0  0999 V2000
   -3.0190   -3.1410    0.9640 C   0  0  0  0  0
   -4.3670   -2.4190    0.9130 C   0  0  0  0  0
   -5.4640   -3.4130    0.5250 C   0  0  0  0  0
   -5.1500   -4.0060   -0.8510 C   0  0  0  0  0
   -3.8020   -4.7280   -0.8000 C   0  0  0  0  0
   -2.7060   -3.7340   -0.4110 C   0  0  0  0  0
   -1.3580   -4.4550   -0.3600 C   0  0  0  0  0
   -1.0880   -5.1270   -1.7080 C   0  0  0  0  0
   -0.9280   -4.0560   -2.7890 C   0  0  0  0  0
    0.1110   -5.9000   -1.6230 O   0  0  0  0  0
   -0.2660   -3.4590   -0.0680 C   0  0  0  0  0
   -0.3390   -2.3320   -0.5090 O   0  0  0  0  0
    0.7930   -3.8210    0.6830 N   0  0  0  0  0
    0.9580   -5.2130    1.1230 C   0  0  0  0  0
    2.3490   -5.7010    0.7070 C   0  0  0  0  0
    3.4070   -4.7390    1.2530 C   0  0  0  0  0
    3.1870   -3.3450    0.6610 C   0  0  0  0  0
    1.8080   -2.8320    1.0720 C   0  0  0  0  0
    1.5310   -1.5240    0.3780 C   0  0  0  0  0
    1.6120   -1.4490   -0.8250 O   0  0  0  0  0
    1.1940   -0.4410    1.0970 O   0  0  0  0  0
    0.9410    0.7850    0.3620 C   0  0  0  0  0
    2.2450    1.5730    0.2200 C   0  0  0  0  0
    3.2280    0.7790   -0.6430 C   0  0  0  0  0
    4.5130    1.5550   -0.7830 C   0  0  0  0  0
    5.5310    1.3750    0.1350 C   0  0  0  0  0
    4.6730    2.4400   -1.8330 C   0  0  0  0  0
    5.8490    3.1540   -1.9660 C   0  0  0  0  0
    6.8710    2.9830   -1.0460 C   0  0  0  0  0
    8.0290    3.6840   -1.1760 O   0  0  0  0  0
    8.1240    4.5800   -2.2850 C   0  0  0  0  0
    6.7120    2.0870    0.0070 C   0  0  0  0  0
    7.7140    1.9110    0.9100 O   0  0  0  0  0
    7.4810    0.9760    1.9640 C   0  0  0  0  0
   -0.0700    1.6180    1.1070 C   0  0  0  0  0
   -1.0540    2.2950    0.4120 C   0  0  0  0  0
   -0.0150    1.7000    2.4860 C   0  0  0  0  0
   -0.9410    2.4640    3.1730 C   0  0  0  0  0
   -1.9240    3.1460    2.4830 C   0  0  0  0  0
   -1.9840    3.0610    1.0990 C   0  0  0  0  0
   -2.9500    3.7320    0.4170 O   0  0  0  0  0
   -3.8700    4.5070    1.1890 C   0  0  0  0  0
   -4.8750    5.1840    0.2560 C   0  0  0  0  0
   -5.6910    4.1610   -0.4100 N   0  0  0  0  0
   -6.5020    4.7510   -1.4850 C   0  0  0  0  0
   -7.2900    3.6430   -2.1900 C   0  0  0  0  0
   -8.0890    2.9480   -1.2280 O   0  0  0  0  0
   -7.3310    2.3600   -0.1670 C   0  0  0  0  0
   -6.5440    3.4550    0.5580 C   0  0  0  0  0
   -2.2380   -2.4330    1.2410 H   0  0  0  0  0
   -3.0630   -3.9410    1.7030 H   0  0  0  0  0
   -4.5910   -1.9970    1.8930 H   0  0  0  0  0
   -4.3240   -1.6190    0.1740 H   0  0  0  0  0
   -5.5070   -4.2130    1.2640 H   0  0  0  0  0
   -6.4240   -2.8990    0.4880 H   0  0  0  0  0
   -5.9310   -4.7150   -1.1270 H   0  0  0  0  0
   -5.1070   -3.2060   -1.5900 H   0  0  0  0  0
   -3.8460   -5.5280   -0.0610 H   0  0  0  0  0
   -3.5790   -5.1500   -1.7800 H   0  0  0  0  0
   -2.6620   -2.9340   -1.1500 H   0  0  0  0  0
   -1.3800   -5.2110    0.4240 H   0  0  0  0  0
   -1.9230   -5.7790   -1.9630 H   0  0  0  0  0
   -0.1440   -3.3590   -2.4970 H   0  0  0  0  0
   -0.6600   -4.5300   -3.7340 H   0  0  0  0  0
   -1.8680   -3.5160   -2.9070 H   0  0  0  0  0
    0.0470   -6.6620   -1.0310 H   0  0  0  0  0
    0.8610   -5.2670    2.2080 H   0  0  0  0  0
    0.1970   -5.8370    0.6550 H   0  0  0  0  0
    2.5210   -6.6980    1.1100 H   0  0  0  0  0
    2.4130   -5.7320   -0.3810 H   0  0  0  0  0
    3.3260   -4.6900    2.3390 H   0  0  0  0  0
    4.3990   -5.0970    0.9790 H   0  0  0  0  0
    3.9540   -2.6670    1.0330 H   0  0  0  0  0
    3.2430   -3.3980   -0.4260 H   0  0  0  0  0
    1.7820   -2.6880    2.1520 H   0  0  0  0  0
    0.5530    0.5430   -0.6270 H   0  0  0  0  0
    2.0400    2.5330   -0.2530 H   0  0  0  0  0
    2.6790    1.7390    1.2060 H   0  0  0  0  0
    3.4330   -0.1810   -0.1700 H   0  0  0  0  0
    2.7940    0.6130   -1.6290 H   0  0  0  0  0
    5.4050    0.6790    0.9510 H   0  0  0  0  0
    3.8760    2.5750   -2.5500 H   0  0  0  0  0
    5.9720    3.8450   -2.7870 H   0  0  0  0  0
    8.0140    4.0220   -3.2140 H   0  0  0  0  0
    7.3350    5.3290   -2.2150 H   0  0  0  0  0
    9.0960    5.0740   -2.2700 H   0  0  0  0  0
    8.3570    0.9320    2.6120 H   0  0  0  0  0
    6.6160    1.2930    2.5460 H   0  0  0  0  0
    7.2930   -0.0100    1.5410 H   0  0  0  0  0
   -1.0990    2.2270   -0.6640 H   0  0  0  0  0
    0.7520    1.1670    3.0280 H   0  0  0  0  0
   -0.8970    2.5260    4.2510 H   0  0  0  0  0
   -2.6470    3.7420    3.0200 H   0  0  0  0  0
   -4.4000    3.8550    1.8830 H   0  0  0  0  0
   -3.3240    5.2660    1.7490 H   0  0  0  0  0
   -5.5210    5.8440    0.8350 H   0  0  0  0  0
   -4.3390    5.7660   -0.4940 H   0  0  0  0  0
   -7.1950    5.4770   -1.0610 H   0  0  0  0  0
   -5.8490    5.2470   -2.2030 H   0  0  0  0  0
   -7.9360    4.0830   -2.9500 H   0  0  0  0  0
   -6.5970    2.9460   -2.6600 H   0  0  0  0  0
   -8.0070    1.8720    0.5350 H   0  0  0  0  0
   -6.6390    1.6250   -0.5780 H   0  0  0  0  0
   -5.9210    3.0040    1.3300 H   0  0  0  0  0
   -7.2380    4.1610    1.0140 H   0  0  0  0  0
  1  2  1  0  0  0
  1 50  1  0  0  0
  1 51  1  0  0  0
  2  3  1  0  0  0
  2 52  1  0  0  0
  2 53  1  0  0  0
  3  4  1  0  0  0
  3 54  1  0  0  0
  3 55  1  0  0  0
  4 56  1  0  0  0
  4 57  1  0  0  0
  5  4  1  0  0  0
  5 58  1  0  0  0
  5 59  1  0  0  0
  6  1  1  0  0  0
  6  5  1  0  0  0
  6 60  1  0  0  0
  7 11  1  0  0  0
  7  6  1  0  0  0
  7 61  1  0  0  0
  8  7  1  0  0  0
  8 62  1  0  0  0
  9  8  1  0  0  0
  9 63  1  0  0  0
  9 64  1  0  0  0
  9 65  1  0  0  0
 10  8  1  0  0  0
 10 66  1  0  0  0
 11 13  1  0  0  0
 11 12  2  0  0  0
 13 18  1  0  0  0
 14 13  1  0  0  0
 14 15  1  0  0  0
 14 67  1  0  0  0
 14 68  1  0  0  0
 15 16  1  0  0  0
 15 69  1  0  0  0
 15 70  1  0  0  0
 16 17  1  0  0  0
 16 71  1  0  0  0
 16 72  1  0  0  0
 17 73  1  0  0  0
 17 74  1  0  0  0
 18 17  1  0  0  0
 18 75  1  0  0  0
 19 20  2  0  0  0
 19 18  1  0  0  0
 21 19  1  0  0  0
 22 21  1  0  0  0
 22 76  1  0  0  0
 23 22  1  0  0  0
 23 77  1  0  0  0
 23 78  1  0  0  0
 24 25  1  0  0  0
 24 23  1  0  0  0
 24 79  1  0  0  0
 24 80  1  0  0  0
 25 26  1  0  0  0
 26 32  2  0  0  0
 26 81  1  0  0  0
 27 25  2  0  0  0
 27 28  1  0  0  0
 27 82  1  0  0  0
 28 29  2  0  0  0
 28 83  1  0  0  0
 29 32  1  0  0  0
 29 30  1  0  0  0
 30 31  1  0  0  0
 31 84  1  0  0  0
 31 85  1  0  0  0
 31 86  1  0  0  0
 32 33  1  0  0  0
 34 33  1  0  0  0
 34 87  1  0  0  0
 34 88  1  0  0  0
 34 89  1  0  0  0
 35 22  1  0  0  0
 36 35  1  0  0  0
 36 90  1  0  0  0
 37 35  2  0  0  0
 37 91  1  0  0  0
 38 37  1  0  0  0
 38 92  1  0  0  0
 39 38  2  0  0  0
 39 40  1  0  0  0
 39 93  1  0  0  0
 40 36  2  0  0  0
 41 40  1  0  0  0
 42 41  1  0  0  0
 42 43  1  0  0  0
 42 94  1  0  0  0
 42 95  1  0  0  0
 43 96  1  0  0  0
 43 97  1  0  0  0
 44 43  1  0  0  0
 45 44  1  0  0  0
 45 98  1  0  0  0
 45 99  1  0  0  0
 46 45  1  0  0  0
 46100  1  0  0  0
 46101  1  0  0  0
 47 46  1  0  0  0
 47 48  1  0  0  0
 48 49  1  0  0  0
 48102  1  0  0  0
 48103  1  0  0  0
 49 44  1  0  0  0
 49104  1  0  0  0
 49105  1  0  0  0
M  END
$$$$
