5BR
  CCTOOLS-0919241035

 17 16  0  0  0  0  0  0  0  0999 V2000
    0.0900    0.0000   -1.9890 BR  0  0  0  0  0
   -0.8020    0.0000   -0.2370 C   0  0  0  0  0
    0.2500    0.0000    0.8720 C   0  0  0  0  0
   -0.4440    0.0000    2.2350 C   0  0  0  0  0
    0.6090    0.0000    3.3440 C   0  0  0  0  0
   -0.0850    0.0000    4.7070 C   0  0  0  0  0
   -1.4250   -0.8900   -0.1470 H   0  0  0  0  0
   -1.4250    0.8900   -0.1470 H   0  0  0  0  0
    0.8730    0.8900    0.7810 H   0  0  0  0  0
    0.8730   -0.8900    0.7810 H   0  0  0  0  0
   -1.0670   -0.8900    2.3250 H   0  0  0  0  0
   -1.0670    0.8900    2.3250 H   0  0  0  0  0
    1.2310    0.8900    3.2540 H   0  0  0  0  0
    1.2310   -0.8900    3.2540 H   0  0  0  0  0
    0.6640    0.0000    5.4980 H   0  0  0  0  0
   -0.7080    0.8900    4.7980 H   0  0  0  0  0
   -0.7080   -0.8900    4.7980 H   0  0  0  0  0
  1  2  1  0  0  0
  2  3  1  0  0  0
  2  7  1  0  0  0
  2  8  1  0  0  0
  3  4  1  0  0  0
  3  9  1  0  0  0
  3 10  1  0  0  0
  4  5  1  0  0  0
  4 11  1  0  0  0
  4 12  1  0  0  0
  5  6  1  0  0  0
  5 13  1  0  0  0
  5 14  1  0  0  0
  6 15  1  0  0  0
  6 16  1  0  0  0
  6 17  1  0  0  0
M  END
$$$$
