5CD
  CCTOOLS-0919241035

 31 33  0  0  1  0  0  0  0  0999 V2000
    0.7100    0.3030    0.0480 N   0  0  0  0  0
    0.8470    1.4280    0.8050 C   0  0  0  0  0
    2.1070    1.7220    0.9420 N   0  0  0  0  0
    2.8580    0.8020    0.2880 C   0  0  0  0  0
    1.9700   -0.1160   -0.2980 C   0  0  0  0  0
    2.4610   -1.1260   -1.0080 N   0  0  0  0  0
    3.7600   -1.2650   -1.1670 C   0  0  0  0  0
    4.6330   -0.4250   -0.6400 N   0  0  0  0  0
    4.2350    0.6150    0.0850 C   0  0  0  0  0
    5.1570    1.4900    0.6330 N   0  0  0  0  0
   -0.5280   -2.7350    0.1910 O   0  0  0  0  0
   -0.9110   -1.4500    0.6870 C   0  0  0  0  0
   -2.4500   -1.3550    0.8150 C   0  0  0  0  0
   -3.0640   -2.5770    0.3990 O   0  0  0  0  0
   -2.8350   -0.2030   -0.1390 C   0  0  0  0  0
   -3.9820    0.6200    0.4510 C   0  0  0  0  0
   -4.4470    1.9210   -0.7070 CL  0  0  0  0  0
   -1.6410    0.6020   -0.2470 O   0  0  0  0  0
   -0.5510   -0.3420   -0.3270 C   0  0  0  0  0
    0.0300    1.9940    1.2280 H   0  0  0  0  0
    4.1260   -2.0970   -1.7500 H   0  0  0  0  0
    6.1060    1.3480    0.4890 H   0  0  0  0  0
    4.8540    2.2480    1.1570 H   0  0  0  0  0
   -0.8330   -3.3860    0.8380 H   0  0  0  0  0
   -0.4350   -1.2560    1.6480 H   0  0  0  0  0
   -2.7350   -1.1150    1.8390 H   0  0  0  0  0
   -4.0200   -2.4370    0.4410 H   0  0  0  0  0
   -3.1160   -0.5970   -1.1160 H   0  0  0  0  0
   -4.8390   -0.0290    0.6330 H   0  0  0  0  0
   -3.6600    1.0680    1.3910 H   0  0  0  0  0
   -0.4810   -0.7560   -1.3330 H   0  0  0  0  0
  1  2  1  0  0  0
  1  5  1  0  0  0
  1 19  1  0  0  0
  2  3  2  0  0  0
  2 20  1  0  0  0
  3  4  1  0  0  0
  4  5  2  0  0  0
  4  9  1  0  0  0
  5  6  1  0  0  0
  6  7  2  0  0  0
  7  8  1  0  0  0
  7 21  1  0  0  0
  8  9  2  0  0  0
  9 10  1  0  0  0
 10 22  1  0  0  0
 10 23  1  0  0  0
 11 12  1  0  0  0
 11 24  1  0  0  0
 12 13  1  0  0  0
 12 19  1  0  0  0
 12 25  1  0  0  0
 13 14  1  0  0  0
 13 15  1  0  0  0
 13 26  1  0  0  0
 14 27  1  0  0  0
 15 16  1  0  0  0
 15 18  1  0  0  0
 15 28  1  0  0  0
 16 17  1  0  0  0
 16 29  1  0  0  0
 16 30  1  0  0  0
 18 19  1  0  0  0
 19 31  1  0  0  0
M  END
$$$$
