5FB
  CCTOOLS-0919241035

 42 44  0  0  1  0  0  0  0  0999 V2000
   -0.4080    0.5630   -1.0870 C   0  0  0  0  0
    3.5290   -2.0250   -1.0660 C   0  0  0  0  0
    4.8380   -1.5550   -0.9320 C   0  0  0  0  0
    5.9420   -2.3990   -1.2790 C   0  0  0  0  0
    5.0670   -0.2600   -0.4590 C   0  0  0  0  0
    4.2480    1.9440    0.3840 C   0  0  0  0  0
    0.1880   -1.4330    3.2170 C   0  0  0  0  0
    0.7320   -0.6360    2.1620 O   0  0  0  0  0
   -0.0610   -0.4210    1.0790 C   0  0  0  0  0
   -1.3350   -0.9640    1.0320 C   0  0  0  0  0
   -2.1360   -0.7520   -0.0740 C   0  0  0  0  0
   -3.5220   -1.3430   -0.1230 C   0  0  0  0  0
   -4.5210   -0.3500    0.4730 C   0  0  0  0  0
   -4.6540    1.1390   -0.5740 S   0  0  0  0  0
   -6.3750    0.9000   -0.9250 C   0  0  0  0  0
   -7.0720    1.6160   -1.6170 O   0  0  0  0  0
   -6.7680   -0.2080   -0.2920 N   0  0  0  0  0
   -5.9240   -0.9170    0.4380 C   0  0  0  0  0
   -6.2440   -1.9270    1.0260 O   0  0  0  0  0
   -1.6760    0.0140   -1.1290 C   0  0  0  0  0
    0.4050    0.3460    0.0150 C   0  0  0  0  0
    1.6550    0.8800    0.0560 O   0  0  0  0  0
    2.7010    0.0790   -0.2670 C   0  0  0  0  0
    2.4690   -1.2080   -0.7380 C   0  0  0  0  0
    6.8180   -3.0680   -1.5540 N   0  0  0  0  0
    4.0030    0.5480   -0.1270 C   0  0  0  0  0
    3.7070    2.0730    1.6670 F   0  0  0  0  0
    5.6250    2.1880    0.4320 F   0  0  0  0  0
    3.6410    2.8680   -0.4740 F   0  0  0  0  0
   -0.0490    1.1570   -1.9140 H   0  0  0  0  0
    3.3480   -3.0250   -1.4310 H   0  0  0  0  0
    6.0770    0.1060   -0.3540 H   0  0  0  0  0
   -0.7130   -0.9560    3.6030 H   0  0  0  0  0
   -0.0600   -2.4220    2.8330 H   0  0  0  0  0
    0.9220   -1.5260    4.0170 H   0  0  0  0  0
   -1.6990   -1.5590    1.8560 H   0  0  0  0  0
   -3.7910   -1.5520   -1.1590 H   0  0  0  0  0
   -3.5420   -2.2690    0.4510 H   0  0  0  0  0
   -4.2360   -0.0820    1.4900 H   0  0  0  0  0
   -7.6900   -0.4990   -0.3700 H   0  0  0  0  0
   -2.3080    0.1840   -1.9880 H   0  0  0  0  0
    1.4570   -1.5690   -0.8450 H   0  0  0  0  0
  1 21  1  0  0  0
  1 30  1  0  0  0
  2 31  1  0  0  0
  3  2  2  0  0  0
  3  4  1  0  0  0
  4 25  3  0  0  0
  5  3  1  0  0  0
  5 32  1  0  0  0
  6 26  1  0  0  0
  6 28  1  0  0  0
  7 33  1  0  0  0
  7 34  1  0  0  0
  7 35  1  0  0  0
  8  7  1  0  0  0
  9  8  1  0  0  0
 10  9  1  0  0  0
 10 36  1  0  0  0
 11 10  2  0  0  0
 12 11  1  0  0  0
 12 37  1  0  0  0
 12 38  1  0  0  0
 13 12  1  0  0  0
 13 14  1  0  0  0
 13 39  1  0  0  0
 15 14  1  0  0  0
 15 16  2  0  0  0
 17 15  1  0  0  0
 17 40  1  0  0  0
 18 13  1  0  0  0
 18 17  1  0  0  0
 19 18  2  0  0  0
 20  1  2  0  0  0
 20 11  1  0  0  0
 20 41  1  0  0  0
 21  9  2  0  0  0
 21 22  1  0  0  0
 22 23  1  0  0  0
 23 24  2  0  0  0
 24  2  1  0  0  0
 24 42  1  0  0  0
 26  5  2  0  0  0
 26 23  1  0  0  0
 27  6  1  0  0  0
 29  6  1  0  0  0
M  END
$$$$
