5FW
  CCTOOLS-0919241035

 32 32  0  0  1  0  0  0  0  0999 V2000
    5.2200   -1.1810    0.1210 C   0  0  0  0  0
    3.9700   -0.5130    0.6960 C   0  0  0  0  0
    4.3590    0.8040    1.3710 C   0  0  0  0  0
    3.0170   -0.2430   -0.3890 N   0  0  0  0  0
    1.6420   -0.1720    0.1230 C   0  0  0  0  0
    0.6800    0.1090   -1.0340 C   0  0  0  0  0
    1.0250    1.3530   -1.6470 O   0  0  0  0  0
   -0.7300    0.1820   -0.5080 C   0  0  0  0  0
   -1.5380   -0.9390   -0.5440 C   0  0  0  0  0
   -1.2110    1.3680    0.0140 C   0  0  0  0  0
   -2.5050    1.4400    0.4980 C   0  0  0  0  0
   -3.3210    0.3220    0.4600 C   0  0  0  0  0
   -4.5940    0.3910    0.9360 O   0  0  0  0  0
   -2.8350   -0.8740   -0.0610 C   0  0  0  0  0
   -3.6320   -1.9760   -0.0950 O   0  0  0  0  0
    5.9270   -1.3810    0.9260 H   0  0  0  0  0
    4.9430   -2.1190   -0.3600 H   0  0  0  0  0
    5.6820   -0.5190   -0.6120 H   0  0  0  0  0
    3.5080   -1.1740    1.4280 H   0  0  0  0  0
    4.8210    1.4660    0.6380 H   0  0  0  0  0
    3.4680    1.2800    1.7800 H   0  0  0  0  0
    5.0660    0.6040    2.1760 H   0  0  0  0  0
    3.2620    0.6010   -0.8850 H   0  0  0  0  0
    1.3790   -1.1210    0.5910 H   0  0  0  0  0
    1.5690    0.6290    0.8590 H   0  0  0  0  0
    0.7530   -0.6910   -1.7700 H   0  0  0  0  0
    0.9820    2.1120   -1.0500 H   0  0  0  0  0
   -1.1590   -1.8660   -0.9480 H   0  0  0  0  0
   -0.5760    2.2410    0.0440 H   0  0  0  0  0
   -2.8780    2.3680    0.9060 H   0  0  0  0  0
   -5.2480    0.6470    0.2720 H   0  0  0  0  0
   -3.5750   -2.5270    0.6970 H   0  0  0  0  0
  1  2  1  0  0  0
  1 16  1  0  0  0
  1 17  1  0  0  0
  1 18  1  0  0  0
  2  3  1  0  0  0
  2  4  1  0  0  0
  2 19  1  0  0  0
  3 20  1  0  0  0
  3 21  1  0  0  0
  3 22  1  0  0  0
  4  5  1  0  0  0
  4 23  1  0  0  0
  5  6  1  0  0  0
  5 24  1  0  0  0
  5 25  1  0  0  0
  6  7  1  0  0  0
  6  8  1  0  0  0
  6 26  1  0  0  0
  7 27  1  0  0  0
  8  9  1  0  0  0
  8 10  2  0  0  0
  9 14  2  0  0  0
  9 28  1  0  0  0
 10 11  1  0  0  0
 10 29  1  0  0  0
 11 12  2  0  0  0
 11 30  1  0  0  0
 12 13  1  0  0  0
 12 14  1  0  0  0
 13 31  1  0  0  0
 14 15  1  0  0  0
 15 32  1  0  0  0
M  END
$$$$
