5KH
  CCTOOLS-0919241036

 52 55  0  0  0  0  0  0  0  0999 V2000
   -3.4700   -1.5070   -1.2080 C   0  0  0  0  0
   -2.1380   -1.1490   -1.2360 C   0  0  0  0  0
   -5.1150    1.6990   -0.0700 C   0  0  0  0  0
   -1.7600    0.1480   -0.8830 C   0  0  0  0  0
   -2.7340    1.0730   -0.5040 C   0  0  0  0  0
   -4.0620    0.7020   -0.4800 C   0  0  0  0  0
   -4.4300   -0.5850   -0.8310 C   0  0  0  0  0
    5.3060   -0.2150   -2.7770 C   0  0  0  0  0
    5.2360    0.4790   -1.4420 C   0  0  0  0  0
    6.2260    1.0040   -0.9790 O   0  0  0  0  0
    4.0730    0.5160   -0.7620 N   0  0  0  0  0
    2.8890   -0.0490   -1.1840 C   0  0  0  0  0
    1.9290    0.1670   -0.2660 C   0  0  0  0  0
    0.5930   -0.2560   -0.3410 N   0  0  0  0  0
   -0.3350    0.5390   -0.9100 C   0  0  0  0  0
    0.0000    1.5770   -1.4470 O   0  0  0  0  0
   -6.1860    1.0280    0.5290 F   0  0  0  0  0
   -4.5660    2.6080    0.8410 F   0  0  0  0  0
   -5.5690    2.3880   -1.2000 F   0  0  0  0  0
    0.2240   -1.5020    0.1770 C   0  0  0  0  0
    0.3520   -2.6450   -0.6030 C   0  0  0  0  0
    0.8900   -2.5420   -2.0080 C   0  0  0  0  0
   -0.0110   -3.8750   -0.0920 C   0  0  0  0  0
   -0.5040   -3.9740    1.1950 C   0  0  0  0  0
   -0.6350   -2.8360    1.9790 C   0  0  0  0  0
   -0.2660   -1.6000    1.4720 C   0  0  0  0  0
   -1.1210   -2.9340    3.2440 O   0  0  0  0  0
    2.5450    0.9300    0.8300 C   0  0  0  0  0
    3.8890    1.1220    0.4690 C   0  0  0  0  0
    4.7340    1.8170    1.3240 C   0  0  0  0  0
    4.2490    2.3180    2.5140 C   0  0  0  0  0
    2.9210    2.1340    2.8680 C   0  0  0  0  0
    2.0680    1.4410    2.0370 C   0  0  0  0  0
   -3.7640   -2.5090   -1.4860 H   0  0  0  0  0
   -1.3900   -1.8700   -1.5310 H   0  0  0  0  0
   -2.4480    2.0780   -0.2290 H   0  0  0  0  0
   -5.4710   -0.8710   -0.8110 H   0  0  0  0  0
    5.5700   -1.2630   -2.6290 H   0  0  0  0  0
    4.3370   -0.1510   -3.2720 H   0  0  0  0  0
    6.0630    0.2660   -3.3980 H   0  0  0  0  0
    2.7520   -0.5850   -2.1120 H   0  0  0  0  0
    0.0640   -2.3820   -2.7010 H   0  0  0  0  0
    1.5840   -1.7040   -2.0700 H   0  0  0  0  0
    1.4090   -3.4640   -2.2670 H   0  0  0  0  0
    0.0890   -4.7620   -0.7000 H   0  0  0  0  0
   -0.7880   -4.9370    1.5920 H   0  0  0  0  0
   -0.3630   -0.7140    2.0820 H   0  0  0  0  0
   -0.4410   -3.0790    3.9160 H   0  0  0  0  0
    5.7700    1.9650    1.0580 H   0  0  0  0  0
    4.9100    2.8570    3.1760 H   0  0  0  0  0
    2.5540    2.5310    3.8030 H   0  0  0  0  0
    1.0360    1.2950    2.3180 H   0  0  0  0  0
  1  7  2  0  0  0
  1  2  1  0  0  0
  1 34  1  0  0  0
  2  4  2  0  0  0
  2 35  1  0  0  0
  3 19  1  0  0  0
  4  5  1  0  0  0
  4 15  1  0  0  0
  5 36  1  0  0  0
  6  5  2  0  0  0
  6  3  1  0  0  0
  7  6  1  0  0  0
  7 37  1  0  0  0
  8  9  1  0  0  0
  8 38  1  0  0  0
  8 39  1  0  0  0
  8 40  1  0  0  0
  9 10  2  0  0  0
 11 29  1  0  0  0
 11  9  1  0  0  0
 12 11  1  0  0  0
 12 41  1  0  0  0
 13 12  2  0  0  0
 13 28  1  0  0  0
 14 20  1  0  0  0
 14 13  1  0  0  0
 15 14  1  0  0  0
 16 15  2  0  0  0
 17  3  1  0  0  0
 18  3  1  0  0  0
 20 26  2  0  0  0
 21 23  2  0  0  0
 21 20  1  0  0  0
 22 21  1  0  0  0
 22 42  1  0  0  0
 22 43  1  0  0  0
 22 44  1  0  0  0
 23 24  1  0  0  0
 23 45  1  0  0  0
 24 25  2  0  0  0
 24 46  1  0  0  0
 25 27  1  0  0  0
 26 25  1  0  0  0
 26 47  1  0  0  0
 27 48  1  0  0  0
 28 33  2  0  0  0
 28 29  1  0  0  0
 29 30  2  0  0  0
 30 31  1  0  0  0
 30 49  1  0  0  0
 31 50  1  0  0  0
 32 31  2  0  0  0
 32 51  1  0  0  0
 33 32  1  0  0  0
 33 52  1  0  0  0
M  END
$$$$
