5MB
  CCTOOLS-0919241036

 18 19  0  0  0  0  0  0  0  0999 V2000
   -1.2730    0.0010   -1.7380 N   0  0  0  0  0
    0.8720   -0.0000   -2.1290 N   0  0  0  0  0
   -0.3010    0.0000   -2.6890 C   0  0  0  0  0
    0.7340   -0.0000   -0.7780 C   0  0  0  0  0
   -0.6450    0.0010   -0.5080 C   0  0  0  0  0
   -1.0910   -0.0040    0.8050 C   0  0  0  0  0
   -0.1770    0.0010    1.8370 C   0  0  0  0  0
    1.1840   -0.0000    1.5700 C   0  0  0  0  0
    1.6420   -0.0000    0.2830 C   0  0  0  0  0
   -0.6600    0.0010    3.2640 C   0  0  0  0  0
   -2.2310    0.0020   -1.8940 H   0  0  0  0  0
   -0.4780    0.0000   -3.7550 H   0  0  0  0  0
   -2.1500   -0.0090    1.0180 H   0  0  0  0  0
    1.8890   -0.0000    2.3880 H   0  0  0  0  0
    2.7040   -0.0010    0.0860 H   0  0  0  0  0
   -0.7750    1.0290    3.6090 H   0  0  0  0  0
   -1.6190   -0.5110    3.3240 H   0  0  0  0  0
    0.0660   -0.5120    3.8940 H   0  0  0  0  0
  1  3  1  0  0  0
  1  5  1  0  0  0
  1 11  1  0  0  0
  2  3  2  0  0  0
  2  4  1  0  0  0
  3 12  1  0  0  0
  4  5  2  0  0  0
  4  9  1  0  0  0
  5  6  1  0  0  0
  6  7  2  0  0  0
  6 13  1  0  0  0
  7  8  1  0  0  0
  7 10  1  0  0  0
  8  9  2  0  0  0
  8 14  1  0  0  0
  9 15  1  0  0  0
 10 16  1  0  0  0
 10 17  1  0  0  0
 10 18  1  0  0  0
M  END
$$$$
