5OB
  CCTOOLS-0919241037

 19 20  0  0  0  0  0  0  0  0999 V2000
   -1.1950    0.0010   -2.2270 N   0  0  0  0  0
    0.9720   -0.0000   -2.4760 N   0  0  0  0  0
   -0.1620    0.0000   -3.1130 C   0  0  0  0  0
    0.7440   -0.0000   -1.1370 C   0  0  0  0  0
   -0.6490    0.0010   -0.9590 C   0  0  0  0  0
   -1.1830   -0.0040    0.3220 C   0  0  0  0  0
   -0.3360    0.0000    1.4150 C   0  0  0  0  0
    1.0440   -0.0000    1.2360 C   0  0  0  0  0
    1.5820   -0.0000   -0.0190 C   0  0  0  0  0
   -0.8540    0.0010    2.6720 O   0  0  0  0  0
    0.2520    0.0000    3.5760 C   0  0  0  0  0
   -2.1400    0.0010   -2.4450 H   0  0  0  0  0
   -0.2680    0.0010   -4.1870 H   0  0  0  0  0
   -2.2530   -0.0100    0.4640 H   0  0  0  0  0
    1.6950   -0.0000    2.0970 H   0  0  0  0  0
    2.6540   -0.0010   -0.1470 H   0  0  0  0  0
   -0.1160    0.0000    4.6020 H   0  0  0  0  0
    0.8570   -0.8900    3.4080 H   0  0  0  0  0
    0.8590    0.8900    3.4070 H   0  0  0  0  0
  1  3  1  0  0  0
  1  5  1  0  0  0
  1 12  1  0  0  0
  2  3  2  0  0  0
  2  4  1  0  0  0
  3 13  1  0  0  0
  4  5  2  0  0  0
  4  9  1  0  0  0
  5  6  1  0  0  0
  6  7  2  0  0  0
  6 14  1  0  0  0
  7  8  1  0  0  0
  7 10  1  0  0  0
  8  9  2  0  0  0
  8 15  1  0  0  0
  9 16  1  0  0  0
 10 11  1  0  0  0
 11 17  1  0  0  0
 11 18  1  0  0  0
 11 19  1  0  0  0
M  END
$$$$
