5PG
  CCTOOLS-1004241122

 24 24  0  0  1  0  0  0  0  0999 V2000
    1.8530    1.4640   -0.0140 N   0  0  0  0  0
    1.3220    0.1960    0.5040 C   0  0  0  0  0
    1.9700   -0.9540   -0.2210 C   0  0  0  0  0
    2.7910   -0.7400   -1.0820 O   0  0  0  0  0
    3.1060    1.8250    0.6630 C   0  0  0  0  0
   -0.1690    0.1500    0.2880 C   0  0  0  0  0
   -0.9930   -0.3740    1.2680 C   0  0  0  0  0
   -0.7110    0.6370   -0.8870 C   0  0  0  0  0
   -2.3590   -0.4170    1.0720 C   0  0  0  0  0
   -2.0780    0.5970   -1.0870 C   0  0  0  0  0
   -2.9050    0.0660   -0.1080 C   0  0  0  0  0
   -4.2500    0.0250   -0.3030 O   0  0  0  0  0
    1.6370   -2.2170    0.0880 O   0  0  0  0  0
    1.9810    1.4200   -1.0130 H   0  0  0  0  0
    1.5370    0.1200    1.5700 H   0  0  0  0  0
    3.4770    2.7680    0.2600 H   0  0  0  0  0
    2.9230    1.9340    1.7320 H   0  0  0  0  0
    3.8460    1.0430    0.4980 H   0  0  0  0  0
    2.0790   -2.9220   -0.4050 H   0  0  0  0  0
   -0.5670   -0.7500    2.1860 H   0  0  0  0  0
   -0.0660    1.0500   -1.6480 H   0  0  0  0  0
   -3.0020   -0.8270    1.8370 H   0  0  0  0  0
   -2.5010    0.9780   -2.0050 H   0  0  0  0  0
   -4.7160    0.8140    0.0040 H   0  0  0  0  0
  1  2  1  0  0  0
  1  5  1  0  0  0
  1 14  1  0  0  0
  2  3  1  0  0  0
  2  6  1  0  0  0
  2 15  1  0  0  0
  3  4  2  0  0  0
  3 13  1  0  0  0
  5 16  1  0  0  0
  5 17  1  0  0  0
  5 18  1  0  0  0
  6  7  1  0  0  0
  6  8  2  0  0  0
  7  9  2  0  0  0
  7 20  1  0  0  0
  8 10  1  0  0  0
  8 21  1  0  0  0
  9 11  1  0  0  0
  9 22  1  0  0  0
 10 11  2  0  0  0
 10 23  1  0  0  0
 11 12  1  0  0  0
 12 24  1  0  0  0
 13 19  1  0  0  0
M  END
$$$$
