5UD
  CCTOOLS-0919241037

 29 30  0  0  1  0  0  0  0  0999 V2000
   -0.8390    1.4550   -4.0740 F   0  0  0  0  0
   -0.3390    0.7110   -3.0630 C   0  0  0  0  0
    0.5500   -0.3570   -3.3300 C   0  0  0  0  0
    0.8740   -0.6160   -4.4760 O   0  0  0  0  0
    1.0370   -1.0850   -2.3050 N   0  0  0  0  0
    0.6840   -0.7960   -1.0390 C   0  0  0  0  0
    1.1310   -1.4620   -0.1250 O   0  0  0  0  0
   -0.6810    0.9770   -1.7830 C   0  0  0  0  0
   -0.1640    0.2120   -0.7710 N   0  0  0  0  0
   -0.5340    0.4990    0.6170 C   0  0  0  0  0
   -1.1270   -0.7600    1.2990 C   0  0  0  0  0
   -2.5300   -0.8630    1.0490 O   0  0  0  0  0
   -0.8520   -0.4760    2.7990 C   0  0  0  0  0
   -2.0170    0.0600    3.4280 O   0  0  0  0  0
    0.2860    0.5600    2.7810 C   0  0  0  0  0
    0.6390    0.7890    1.4060 O   0  0  0  0  0
    1.4960    0.0180    3.5450 C   0  0  0  0  0
    2.5490    0.9830    3.5160 O   0  0  0  0  0
    1.6470   -1.8190   -2.4810 H   0  0  0  0  0
   -1.3590    1.7870   -1.5600 H   0  0  0  0  0
   -1.2410    1.3270    0.6610 H   0  0  0  0  0
   -0.6080   -1.6600    0.9700 H   0  0  0  0  0
   -2.8360   -1.6630    1.4980 H   0  0  0  0  0
   -0.5310   -1.3860    3.3060 H   0  0  0  0  0
   -1.7880    0.2160    4.3540 H   0  0  0  0  0
   -0.0510    1.4910    3.2360 H   0  0  0  0  0
    1.8370   -0.9050    3.0760 H   0  0  0  0  0
    1.2140   -0.1810    4.5780 H   0  0  0  0  0
    3.2910    0.6030    4.0070 H   0  0  0  0  0
  1  2  1  0  0  0
  2  3  1  0  0  0
  2  8  2  0  0  0
  3  4  2  0  0  0
  3  5  1  0  0  0
  5  6  1  0  0  0
  5 19  1  0  0  0
  6  7  2  0  0  0
  6  9  1  0  0  0
  8  9  1  0  0  0
  8 20  1  0  0  0
  9 10  1  0  0  0
 10 11  1  0  0  0
 10 16  1  0  0  0
 10 21  1  0  0  0
 11 12  1  0  0  0
 11 13  1  0  0  0
 11 22  1  0  0  0
 12 23  1  0  0  0
 13 14  1  0  0  0
 13 15  1  0  0  0
 13 24  1  0  0  0
 14 25  1  0  0  0
 15 16  1  0  0  0
 15 17  1  0  0  0
 15 26  1  0  0  0
 17 18  1  0  0  0
 17 27  1  0  0  0
 17 28  1  0  0  0
 18 29  1  0  0  0
M  END
$$$$
