5YI
  CCTOOLS-0919241038

 77 79  0  0  1  0  0  0  0  0999 V2000
   -1.2490    3.0100   -0.2330 C   0  0  0  0  0
   -1.1400    1.5160   -0.1540 C   0  0  0  0  0
   -0.1020    1.1550    0.9460 C   0  0  0  0  0
   -0.3570   -0.3530    1.0000 C   0  0  0  0  0
   -1.8630   -0.4410    0.7710 C   0  0  0  0  0
   -4.2540    2.0810    0.6370 C   0  0  0  0  0
   -6.3710   -0.0630   -0.5610 C   0  0  0  0  0
   -7.3520   -1.2230   -0.3830 C   0  0  0  0  0
   -7.8730   -0.5180    1.9560 C   0  0  0  0  0
   -7.3610   -1.6640    1.0820 C   0  0  0  0  0
   -8.7570   -0.7690   -0.7880 C   0  0  0  0  0
   -9.7590   -1.8880   -0.4930 C   0  0  0  0  0
   -6.9500   -2.3190   -1.2080 O   0  0  0  0  0
   -4.7400   -0.5500    0.0670 S   0  0  0  0  0
   -3.7320    0.9300   -0.2260 C   0  0  0  0  0
   -2.2980    0.6410    0.1370 C   0  0  0  0  0
   -0.5340    1.0360   -1.4740 C   0  0  0  0  0
    0.0870    3.5420   -0.7820 C   0  0  0  0  0
    1.2730    3.1100    0.0770 C   0  0  0  0  0
    1.2080    1.6360    0.3930 C   0  0  0  0  0
    2.2390    0.8270    0.1750 C   0  0  0  0  0
    3.5360    1.3840   -0.2400 C   0  0  0  0  0
    4.5370    0.5710   -0.5600 C   0  0  0  0  0
    5.9130    1.1220   -0.8530 C   0  0  0  0  0
    6.9250    0.4310    0.0710 C   0  0  0  0  0
    6.7310    0.8780    1.4140 O   0  0  0  0  0
    4.3200   -0.9240   -0.6320 C   0  0  0  0  0
    5.3350   -1.6100    0.2920 C   0  0  0  0  0
    5.3220   -3.0200    0.0550 O   0  0  0  0  0
    6.7060   -1.0630   -0.0070 C   0  0  0  0  0
    7.6930   -1.8650   -0.3230 C   0  0  0  0  0
    9.0930   -1.3230   -0.4520 C   0  0  0  0  0
   10.0020   -2.1810    0.2410 O   0  0  0  0  0
   -2.0620    3.2870   -0.9040 H   0  0  0  0  0
   -1.4320    3.4210    0.7600 H   0  0  0  0  0
   -0.3330    1.6340    1.8980 H   0  0  0  0  0
    0.1860   -0.8660    0.2060 H   0  0  0  0  0
   -0.0890   -0.7570    1.9760 H   0  0  0  0  0
   -2.4870   -1.2670    1.0800 H   0  0  0  0  0
   -4.1940    1.8030    1.6890 H   0  0  0  0  0
   -3.6480    2.9700    0.4610 H   0  0  0  0  0
   -5.2910    2.2900    0.3740 H   0  0  0  0  0
   -6.2930    0.1880   -1.6190 H   0  0  0  0  0
   -6.7290    0.8040   -0.0070 H   0  0  0  0  0
   -7.9480   -0.8560    2.9900 H   0  0  0  0  0
   -7.1810    0.3210    1.8970 H   0  0  0  0  0
   -8.8560   -0.2040    1.6050 H   0  0  0  0  0
   -8.0140   -2.5290    1.1970 H   0  0  0  0  0
   -6.3490   -1.9300    1.3870 H   0  0  0  0  0
   -9.0280    0.1210   -0.2200 H   0  0  0  0  0
   -8.7720   -0.5390   -1.8530 H   0  0  0  0  0
   -9.4870   -2.7780   -1.0600 H   0  0  0  0  0
   -9.7440   -2.1170    0.5720 H   0  0  0  0  0
  -10.7590   -1.5640   -0.7810 H   0  0  0  0  0
   -6.9220   -2.1100   -2.1520 H   0  0  0  0  0
   -3.7920    1.2080   -1.2780 H   0  0  0  0  0
   -1.2140    1.2690   -2.2930 H   0  0  0  0  0
    0.4200    1.5380   -1.6390 H   0  0  0  0  0
   -0.3740   -0.0420   -1.4300 H   0  0  0  0  0
    0.2290    3.1670   -1.7960 H   0  0  0  0  0
    0.0500    4.6310   -0.8100 H   0  0  0  0  0
    2.1990    3.3280   -0.4550 H   0  0  0  0  0
    1.2590    3.6670    1.0140 H   0  0  0  0  0
    2.1260   -0.2390    0.3030 H   0  0  0  0  0
    3.6750    2.4540   -0.2840 H   0  0  0  0  0
    6.1730    0.9240   -1.8930 H   0  0  0  0  0
    5.9230    2.1970   -0.6710 H   0  0  0  0  0
    7.9380    0.6700   -0.2520 H   0  0  0  0  0
    6.8440    1.8320    1.5320 H   0  0  0  0  0
    3.3080   -1.1630   -0.3050 H   0  0  0  0  0
    4.4640   -1.2660   -1.6560 H   0  0  0  0  0
    5.0760   -1.4120    1.3320 H   0  0  0  0  0
    4.4650   -3.4380    0.2140 H   0  0  0  0  0
    7.5030   -2.9140   -0.4910 H   0  0  0  0  0
    9.3690   -1.2760   -1.5050 H   0  0  0  0  0
    9.1370   -0.3230   -0.0200 H   0  0  0  0  0
   10.9240   -1.8920    0.2000 H   0  0  0  0  0
  1 34  1  0  0  0
  1 35  1  0  0  0
  2 16  1  0  0  0
  2  1  1  0  0  0
  3  2  1  0  0  0
  3 36  1  0  0  0
  4  3  1  0  0  0
  4  5  1  0  0  0
  4 37  1  0  0  0
  4 38  1  0  0  0
  5 16  2  0  0  0
  5 39  1  0  0  0
  6 40  1  0  0  0
  6 41  1  0  0  0
  6 42  1  0  0  0
  7  8  1  0  0  0
  7 14  1  0  0  0
  7 43  1  0  0  0
  7 44  1  0  0  0
  8 13  1  0  0  0
  8 10  1  0  0  0
  9 10  1  0  0  0
  9 45  1  0  0  0
  9 46  1  0  0  0
  9 47  1  0  0  0
 10 48  1  0  0  0
 10 49  1  0  0  0
 11  8  1  0  0  0
 11 50  1  0  0  0
 11 51  1  0  0  0
 12 11  1  0  0  0
 12 52  1  0  0  0
 12 53  1  0  0  0
 12 54  1  0  0  0
 13 55  1  0  0  0
 15 14  1  0  0  0
 15  6  1  0  0  0
 15 56  1  0  0  0
 16 15  1  0  0  0
 17  2  1  0  0  0
 17 57  1  0  0  0
 17 58  1  0  0  0
 17 59  1  0  0  0
 18  1  1  0  0  0
 18 60  1  0  0  0
 18 61  1  0  0  0
 19 18  1  0  0  0
 19 62  1  0  0  0
 19 63  1  0  0  0
 20  3  1  0  0  0
 20 19  1  0  0  0
 21 20  2  0  0  0
 21 64  1  0  0  0
 22 21  1  0  0  0
 22 65  1  0  0  0
 23 22  2  0  0  0
 24 23  1  0  0  0
 24 66  1  0  0  0
 24 67  1  0  0  0
 25 24  1  0  0  0
 25 68  1  0  0  0
 26 25  1  0  0  0
 26 69  1  0  0  0
 27 23  1  0  0  0
 27 70  1  0  0  0
 27 71  1  0  0  0
 28 29  1  0  0  0
 28 27  1  0  0  0
 28 72  1  0  0  0
 29 73  1  0  0  0
 30 25  1  0  0  0
 30 28  1  0  0  0
 31 30  2  0  0  0
 31 74  1  0  0  0
 32 31  1  0  0  0
 32 75  1  0  0  0
 32 76  1  0  0  0
 33 32  1  0  0  0
 33 77  1  0  0  0
M  END
$$$$
