62D
  CCTOOLS-0919241038

 33 35  0  0  0  0  0  0  0  0999 V2000
   -3.0150    1.2010   -0.0000 N   0  0  0  0  0
   -3.3250   -0.9690   -0.0000 N   0  0  0  0  0
   -3.9340    0.1890   -0.0000 C   0  0  0  0  0
   -5.8690    1.7140    0.0010 C   0  0  0  0  0
   -1.9770   -0.7760   -0.0000 C   0  0  0  0  0
   -0.8950   -1.6490   -0.0000 C   0  0  0  0  0
    0.3980   -1.1370   -0.0000 C   0  0  0  0  0
    2.9160   -0.0750    0.0000 C   0  0  0  0  0
    0.6150    0.2640   -0.0000 C   0  0  0  0  0
   -0.4760    1.1310    0.0000 C   0  0  0  0  0
   -1.7600    0.6180   -0.0000 C   0  0  0  0  0
   -5.3020    0.3630    0.0000 N   0  0  0  0  0
    1.5740   -2.0180    0.0000 C   0  0  0  0  0
    1.4540   -3.2290   -0.0000 O   0  0  0  0  0
    2.7950   -1.4350    0.0010 N   0  0  0  0  0
    4.1760    0.4700    0.0000 N   0  0  0  0  0
    4.3450    1.9250   -0.0000 C   0  0  0  0  0
    1.8880    0.7340    0.0000 N   0  0  0  0  0
    5.8370    2.2650   -0.0000 C   0  0  0  0  0
   -3.2070    2.1520   -0.0040 H   0  0  0  0  0
   -5.5350    2.2470    0.8910 H   0  0  0  0  0
   -5.5360    2.2480   -0.8890 H   0  0  0  0  0
   -6.9570    1.6510    0.0010 H   0  0  0  0  0
   -1.0570   -2.7170    0.0000 H   0  0  0  0  0
   -0.3190    2.1990    0.0000 H   0  0  0  0  0
   -5.8890   -0.4090    0.0000 H   0  0  0  0  0
    3.5920   -1.9880    0.0010 H   0  0  0  0  0
    4.9550   -0.1090    0.0010 H   0  0  0  0  0
    3.8770    2.3450   -0.8900 H   0  0  0  0  0
    3.8770    2.3460    0.8900 H   0  0  0  0  0
    6.3060    1.8450    0.8900 H   0  0  0  0  0
    6.3060    1.8450   -0.8900 H   0  0  0  0  0
    5.9630    3.3480   -0.0010 H   0  0  0  0  0
  1  3  1  0  0  0
  1 11  1  0  0  0
  1 20  1  0  0  0
  2  3  2  0  0  0
  2  5  1  0  0  0
  3 12  1  0  0  0
  4 12  1  0  0  0
  4 21  1  0  0  0
  4 22  1  0  0  0
  4 23  1  0  0  0
  5  6  2  0  0  0
  5 11  1  0  0  0
  6  7  1  0  0  0
  6 24  1  0  0  0
  7  9  2  0  0  0
  7 13  1  0  0  0
  8 15  1  0  0  0
  8 16  1  0  0  0
  8 18  2  0  0  0
  9 10  1  0  0  0
  9 18  1  0  0  0
 10 11  2  0  0  0
 10 25  1  0  0  0
 12 26  1  0  0  0
 13 14  2  0  0  0
 13 15  1  0  0  0
 15 27  1  0  0  0
 16 17  1  0  0  0
 16 28  1  0  0  0
 17 19  1  0  0  0
 17 29  1  0  0  0
 17 30  1  0  0  0
 19 31  1  0  0  0
 19 32  1  0  0  0
 19 33  1  0  0  0
M  END
$$$$
