689
  CCTOOLS-0919241039

 45 47  0  0  1  0  0  0  0  0999 V2000
   -2.4340    2.3360   -0.9010 C   0  0  0  0  0
   -1.7550    0.9900   -1.1610 C   0  0  0  0  0
   -0.3070    1.0230   -0.6430 C   0  0  0  0  0
   -0.3420    1.2380    0.8500 C   0  0  0  0  0
    0.8470    1.8840    1.5130 C   0  0  0  0  0
   -1.3490    0.8920    1.5860 C   0  0  0  0  0
   -2.6090    0.2640    1.0720 C   0  0  0  0  0
   -2.9350   -0.9690    1.9170 C   0  0  0  0  0
   -2.4620   -0.1540   -0.3880 C   0  0  0  0  0
   -3.8590   -0.3630   -0.9760 C   0  0  0  0  0
   -4.5200   -1.4150   -0.2700 O   0  0  0  0  0
   -1.6760   -1.4500   -0.5340 C   0  0  0  0  0
   -0.3370   -1.3040   -0.0730 O   0  0  0  0  0
    0.3170   -0.3620   -0.8900 C   0  0  0  0  0
    1.7880   -0.3370   -0.5600 C   0  0  0  0  0
    2.6960    0.1300   -1.4920 C   0  0  0  0  0
    4.0440    0.1590   -1.1900 C   0  0  0  0  0
    4.4860   -0.2900    0.0460 C   0  0  0  0  0
    5.8120   -0.2670    0.3430 O   0  0  0  0  0
    3.5730   -0.7630    0.9770 C   0  0  0  0  0
    2.2260   -0.7850    0.6720 C   0  0  0  0  0
   -1.8860    3.1250   -1.4170 H   0  0  0  0  0
   -3.4590    2.3040   -1.2710 H   0  0  0  0  0
   -2.4400    2.5380    0.1700 H   0  0  0  0  0
   -1.7630    0.7700   -2.2290 H   0  0  0  0  0
    0.2670    1.8060   -1.1380 H   0  0  0  0  0
    0.6290    2.0510    2.5670 H   0  0  0  0  0
    1.7140    1.2300    1.4210 H   0  0  0  0  0
    1.0590    2.8380    1.0300 H   0  0  0  0  0
   -1.2750    1.0690    2.6490 H   0  0  0  0  0
   -3.4250    0.9810    1.1580 H   0  0  0  0  0
   -3.0560   -0.6740    2.9590 H   0  0  0  0  0
   -3.8590   -1.4220    1.5570 H   0  0  0  0  0
   -2.1210   -1.6900    1.8350 H   0  0  0  0  0
   -4.4350    0.5570   -0.8790 H   0  0  0  0  0
   -3.7730   -0.6300   -2.0290 H   0  0  0  0  0
   -5.3940   -1.5140   -0.6710 H   0  0  0  0  0
   -2.1680   -2.2320    0.0440 H   0  0  0  0  0
   -1.6620   -1.7400   -1.5850 H   0  0  0  0  0
    0.1800   -0.6260   -1.9390 H   0  0  0  0  0
    2.3510    0.4790   -2.4540 H   0  0  0  0  0
    4.7530    0.5280   -1.9170 H   0  0  0  0  0
    6.1770   -1.1170    0.0600 H   0  0  0  0  0
    3.9150   -1.1130    1.9400 H   0  0  0  0  0
    1.5150   -1.1530    1.3960 H   0  0  0  0  0
  1  2  1  0  0  0
  1 22  1  0  0  0
  1 23  1  0  0  0
  1 24  1  0  0  0
  2  3  1  0  0  0
  2  9  1  0  0  0
  2 25  1  0  0  0
  3  4  1  0  0  0
  3 14  1  0  0  0
  3 26  1  0  0  0
  4  5  1  0  0  0
  4  6  2  0  0  0
  5 27  1  0  0  0
  5 28  1  0  0  0
  5 29  1  0  0  0
  6  7  1  0  0  0
  6 30  1  0  0  0
  7  8  1  0  0  0
  7  9  1  0  0  0
  7 31  1  0  0  0
  8 32  1  0  0  0
  8 33  1  0  0  0
  8 34  1  0  0  0
  9 10  1  0  0  0
  9 12  1  0  0  0
 10 11  1  0  0  0
 10 35  1  0  0  0
 10 36  1  0  0  0
 11 37  1  0  0  0
 12 13  1  0  0  0
 12 38  1  0  0  0
 12 39  1  0  0  0
 13 14  1  0  0  0
 14 15  1  0  0  0
 14 40  1  0  0  0
 15 16  1  0  0  0
 15 21  2  0  0  0
 16 17  2  0  0  0
 16 41  1  0  0  0
 17 18  1  0  0  0
 17 42  1  0  0  0
 18 19  1  0  0  0
 18 20  2  0  0  0
 19 43  1  0  0  0
 20 21  1  0  0  0
 20 44  1  0  0  0
 21 45  1  0  0  0
M  END
$$$$
