697
  CCTOOLS-0919241039

 28 30  0  0  0  0  0  0  0  0999 V2000
    0.0040   -0.0070    4.8110 C   0  0  0  0  0
   -1.2450   -0.0170    4.2060 C   0  0  0  0  0
   -1.3470   -0.0120    2.8310 C   0  0  0  0  0
   -0.1910   -0.0080    2.0470 C   0  0  0  0  0
    1.0620   -0.0040    2.6600 C   0  0  0  0  0
    1.1560   -0.0040    4.0350 C   0  0  0  0  0
    0.1000   -0.0070    6.1660 O   0  0  0  0  0
   -0.2960   -0.0080    0.5730 C   0  0  0  0  0
   -1.4560   -0.0160   -0.1240 C   0  0  0  0  0
   -1.0780   -0.0090   -1.5400 C   0  0  0  0  0
    0.3260   -0.0050   -1.5570 C   0  0  0  0  0
    0.7480   -0.0040   -0.2770 O   0  0  0  0  0
   -1.7960   -0.0110   -2.7370 C   0  0  0  0  0
   -1.1220   -0.0090   -3.9450 C   0  0  0  0  0
    0.2650   -0.0050   -3.9750 C   0  0  0  0  0
    0.9970   -0.0020   -2.7880 C   0  0  0  0  0
   -1.8230   -0.0100   -5.1110 O   0  0  0  0  0
    2.4290    0.0000   -2.8270 C   0  0  0  0  0
    3.5640    0.0030   -2.8580 N   0  0  0  0  0
   -2.1380   -0.0200    4.8130 H   0  0  0  0  0
   -2.3190   -0.0150    2.3610 H   0  0  0  0  0
    1.9590   -0.0010    2.0570 H   0  0  0  0  0
    2.1260   -0.0010    4.5100 H   0  0  0  0  0
    0.1170    0.9180    6.4450 H   0  0  0  0  0
   -2.4580   -0.0210    0.2790 H   0  0  0  0  0
   -2.8760   -0.0140   -2.7200 H   0  0  0  0  0
    0.7810   -0.0030   -4.9230 H   0  0  0  0  0
   -1.9690    0.9150   -5.3500 H   0  0  0  0  0
  1  2  2  0  0  0
  1  6  1  0  0  0
  1  7  1  0  0  0
  2  3  1  0  0  0
  2 20  1  0  0  0
  3  4  2  0  0  0
  3 21  1  0  0  0
  4  5  1  0  0  0
  4  8  1  0  0  0
  5  6  2  0  0  0
  5 22  1  0  0  0
  6 23  1  0  0  0
  7 24  1  0  0  0
  8  9  2  0  0  0
  8 12  1  0  0  0
  9 10  1  0  0  0
  9 25  1  0  0  0
 10 11  2  0  0  0
 10 13  1  0  0  0
 11 12  1  0  0  0
 11 16  1  0  0  0
 13 14  2  0  0  0
 13 26  1  0  0  0
 14 15  1  0  0  0
 14 17  1  0  0  0
 15 16  2  0  0  0
 15 27  1  0  0  0
 16 18  1  0  0  0
 17 28  1  0  0  0
 18 19  3  0  0  0
M  END
$$$$
