6NA
  CCTOOLS-0829250953

 20 19  0  0  0  0  0  0  0  0999 V2000
   -0.8440   -0.7230    0.0000 C   0  0  0  0  0
   -2.1560    0.0180    0.0000 C   0  0  0  0  0
   -2.1680    1.2260    0.0000 O   0  0  0  0  0
    0.3100    0.2830    0.0000 C   0  0  0  0  0
    1.6420   -0.4690    0.0000 C   0  0  0  0  0
    2.7950    0.5360    0.0000 C   0  0  0  0  0
    4.1280   -0.2160    0.0000 C   0  0  0  0  0
   -3.3120   -0.6640    0.0000 O   0  0  0  0  0
   -0.7800   -1.3490   -0.8900 H   0  0  0  0  0
   -0.7800   -1.3490    0.8900 H   0  0  0  0  0
    0.2460    0.9090    0.8900 H   0  0  0  0  0
    0.2460    0.9090   -0.8900 H   0  0  0  0  0
    1.7060   -1.0950   -0.8900 H   0  0  0  0  0
    1.7060   -1.0950    0.8900 H   0  0  0  0  0
    2.7310    1.1620    0.8900 H   0  0  0  0  0
    2.7310    1.1620   -0.8900 H   0  0  0  0  0
    4.1910   -0.8420    0.8900 H   0  0  0  0  0
    4.1910   -0.8420   -0.8900 H   0  0  0  0  0
    4.9490    0.5000    0.0000 H   0  0  0  0  0
   -4.1540   -0.1890    0.0000 H   0  0  0  0  0
  1  2  1  0  0  0
  1  4  1  0  0  0
  1  9  1  0  0  0
  1 10  1  0  0  0
  2  3  2  0  0  0
  2  8  1  0  0  0
  4  5  1  0  0  0
  4 11  1  0  0  0
  4 12  1  0  0  0
  5  6  1  0  0  0
  5 13  1  0  0  0
  5 14  1  0  0  0
  6  7  1  0  0  0
  6 15  1  0  0  0
  6 16  1  0  0  0
  7 17  1  0  0  0
  7 18  1  0  0  0
  7 19  1  0  0  0
  8 20  1  0  0  0
M  END
$$$$
