6RG
  CCTOOLS-0919241042

 46 49  0  0  0  0  0  0  0  0999 V2000
   -0.5510   -0.4190    0.0020 N   0  0  0  0  0
   -1.6890   -1.1110    0.0040 C   0  0  0  0  0
   -2.8760   -0.5340    0.0020 N   0  0  0  0  0
   -2.9800    0.8030    0.0010 C   0  0  0  0  0
   -1.7940    1.5810   -0.0010 C   0  0  0  0  0
   -0.5490    0.9060    0.0000 C   0  0  0  0  0
   -5.5080    3.4710   -0.0020 N   0  0  0  0  0
    6.7910   -0.1840    0.0020 C   0  0  0  0  0
   -1.4890   -5.3580   -0.0010 C   0  0  0  0  0
    6.1880    0.1510   -1.1960 C   0  0  0  0  0
    6.1880    0.1540    1.1990 C   0  0  0  0  0
   -0.3230   -4.6130   -0.0140 C   0  0  0  0  0
   -2.7190   -4.7260    0.0100 C   0  0  0  0  0
    4.9820    0.8270   -1.1970 C   0  0  0  0  0
    4.9850    0.8350    1.1980 C   0  0  0  0  0
   -0.3820   -3.2350   -0.0110 C   0  0  0  0  0
   -2.7900   -3.3480    0.0070 C   0  0  0  0  0
   -3.0970    3.5840   -0.0030 C   0  0  0  0  0
   -1.8770    2.9780   -0.0020 C   0  0  0  0  0
   -4.2230    1.4460    0.0000 C   0  0  0  0  0
    1.9140    0.8940    0.0000 C   0  0  0  0  0
    3.0640    1.9030   -0.0010 C   0  0  0  0  0
    0.6360    1.6110   -0.0010 N   0  0  0  0  0
   -4.2730    2.8260   -0.0020 C   0  0  0  0  0
    4.3790    1.1660   -0.0000 C   0  0  0  0  0
   -1.6190   -2.5920    0.0060 C   0  0  0  0  0
   -5.5500    4.4400   -0.0020 H   0  0  0  0  0
   -6.3270    2.9500   -0.0010 H   0  0  0  0  0
    7.7320   -0.7150    0.0030 H   0  0  0  0  0
   -1.4380   -6.4370   -0.0030 H   0  0  0  0  0
    6.6600   -0.1130   -2.1300 H   0  0  0  0  0
    6.6570   -0.1120    2.1350 H   0  0  0  0  0
    0.6350   -5.1120   -0.0260 H   0  0  0  0  0
   -3.6260   -5.3130    0.0190 H   0  0  0  0  0
    4.5110    1.0890   -2.1320 H   0  0  0  0  0
    4.5140    1.1010    2.1320 H   0  0  0  0  0
    0.5290   -2.6540   -0.0200 H   0  0  0  0  0
   -3.7520   -2.8560    0.0150 H   0  0  0  0  0
   -3.1570    4.6620   -0.0040 H   0  0  0  0  0
   -0.9760    3.5740   -0.0030 H   0  0  0  0  0
   -5.1350    0.8680    0.0010 H   0  0  0  0  0
    1.9800    0.2670   -0.8890 H   0  0  0  0  0
    1.9800    0.2700    0.8910 H   0  0  0  0  0
    2.9990    2.5280   -0.8920 H   0  0  0  0  0
    2.9990    2.5300    0.8880 H   0  0  0  0  0
    0.6240    2.5810   -0.0020 H   0  0  0  0  0
  1  2  1  0  0  0
  2  3  2  0  0  0
  2 26  1  0  0  0
  4  3  1  0  0  0
  4 20  2  0  0  0
  5  4  1  0  0  0
  6  1  2  0  0  0
  6  5  1  0  0  0
  7 27  1  0  0  0
  7 28  1  0  0  0
  8 11  1  0  0  0
  8 29  1  0  0  0
  9 12  1  0  0  0
  9 30  1  0  0  0
 10  8  2  0  0  0
 10 31  1  0  0  0
 11 32  1  0  0  0
 12 33  1  0  0  0
 13  9  2  0  0  0
 13 34  1  0  0  0
 14 10  1  0  0  0
 14 25  2  0  0  0
 14 35  1  0  0  0
 15 11  2  0  0  0
 15 36  1  0  0  0
 16 12  2  0  0  0
 16 37  1  0  0  0
 17 13  1  0  0  0
 17 26  2  0  0  0
 17 38  1  0  0  0
 18 24  2  0  0  0
 18 39  1  0  0  0
 19  5  2  0  0  0
 19 18  1  0  0  0
 19 40  1  0  0  0
 20 41  1  0  0  0
 21 23  1  0  0  0
 21 42  1  0  0  0
 21 43  1  0  0  0
 22 21  1  0  0  0
 22 25  1  0  0  0
 22 44  1  0  0  0
 22 45  1  0  0  0
 23  6  1  0  0  0
 23 46  1  0  0  0
 24  7  1  0  0  0
 24 20  1  0  0  0
 25 15  1  0  0  0
 26 16  1  0  0  0
M  END
$$$$
