6W2
  CCTOOLS-0919241043

 27 28  0  0  0  0  0  0  0  0999 V2000
   -0.4990   -3.0830    0.2580 O   0  0  0  0  0
   -0.6550   -1.8020   -0.3360 S   0  0  0  0  0
   -0.9870   -1.6150   -1.7050 O   0  0  0  0  0
   -1.8230   -1.0200    0.5390 N   0  0  0  0  0
   -2.1790    0.2800    0.2150 C   0  0  0  0  0
   -3.3640    1.2040    1.0310 S   0  0  0  0  0
   -3.0690    2.5600   -0.0540 C   0  0  0  0  0
   -2.1200    2.2000   -0.9190 C   0  0  0  0  0
   -1.6570    0.9740   -0.7480 N   0  0  0  0  0
    0.8600   -0.9420   -0.0700 C   0  0  0  0  0
    1.6870   -1.3090    0.9750 C   0  0  0  0  0
    2.8750   -0.6370    1.1860 C   0  0  0  0  0
    1.2220    0.0950   -0.9100 C   0  0  0  0  0
    2.4090    0.7700   -0.7040 C   0  0  0  0  0
    3.2380    0.4070    0.3480 C   0  0  0  0  0
    4.4060    1.0700    0.5530 O   0  0  0  0  0
    4.7160    2.1350   -0.3490 C   0  0  0  0  0
   -2.2580   -1.4720    1.2790 H   0  0  0  0  0
   -3.5700    3.5160   -0.0240 H   0  0  0  0  0
   -1.7560    2.8590   -1.6940 H   0  0  0  0  0
    1.4040   -2.1220    1.6280 H   0  0  0  0  0
    0.5760    0.3770   -1.7280 H   0  0  0  0  0
    3.5210   -0.9240    2.0030 H   0  0  0  0  0
    2.6920    1.5790   -1.3600 H   0  0  0  0  0
    5.6730    2.5780   -0.0730 H   0  0  0  0  0
    4.7750    1.7440   -1.3650 H   0  0  0  0  0
    3.9350    2.8940   -0.2960 H   0  0  0  0  0
  1  2  2  0  0  0
  2  3  2  0  0  0
  2  4  1  0  0  0
  2 10  1  0  0  0
  4  5  1  0  0  0
  4 18  1  0  0  0
  5  6  1  0  0  0
  5  9  2  0  0  0
  6  7  1  0  0  0
  7  8  2  0  0  0
  7 19  1  0  0  0
  8  9  1  0  0  0
  8 20  1  0  0  0
 10 11  1  0  0  0
 10 13  2  0  0  0
 11 12  2  0  0  0
 11 21  1  0  0  0
 12 15  1  0  0  0
 12 23  1  0  0  0
 13 14  1  0  0  0
 13 22  1  0  0  0
 14 15  2  0  0  0
 14 24  1  0  0  0
 15 16  1  0  0  0
 16 17  1  0  0  0
 17 25  1  0  0  0
 17 26  1  0  0  0
 17 27  1  0  0  0
M  END
$$$$
