789
  CCTOOLS-0919241027

 28 30  0  0  0  0  0  0  0  0999 V2000
   -4.4600    0.8590   -0.0600 C   0  0  0  0  0
   -3.3310    1.6840   -0.0950 C   0  0  0  0  0
   -2.0700    1.1240   -0.0640 C   0  0  0  0  0
   -1.9190   -0.2750    0.0030 C   0  0  0  0  0
   -3.0490   -1.0850    0.0370 C   0  0  0  0  0
   -4.3130   -0.5160    0.0050 C   0  0  0  0  0
   -0.6990    1.7050   -0.0800 C   0  0  0  0  0
    0.2420    0.5650   -0.0290 C   0  0  0  0  0
   -0.4760   -0.5840    0.0230 C   0  0  0  0  0
    1.7180    0.6630   -0.0280 C   0  0  0  0  0
    2.3790    1.2700    1.0420 C   0  0  0  0  0
    3.7550    1.3550    1.0410 C   0  0  0  0  0
    4.4830    0.8470   -0.0270 C   0  0  0  0  0
    3.8300    0.2430   -1.0920 C   0  0  0  0  0
    2.4540    0.1490   -1.0970 C   0  0  0  0  0
    5.8390    0.9380   -0.0260 O   0  0  0  0  0
   -0.4110    2.8830   -0.1280 O   0  0  0  0  0
   -5.7010    1.4070   -0.0910 O   0  0  0  0  0
    0.2610   -2.3230    0.1090 BR  0  0  0  0  0
   -3.4450    2.7570   -0.1470 H   0  0  0  0  0
   -2.9420   -2.1590    0.0880 H   0  0  0  0  0
   -5.1880   -1.1480    0.0320 H   0  0  0  0  0
    1.8130    1.6690    1.8700 H   0  0  0  0  0
    4.2670    1.8240    1.8690 H   0  0  0  0  0
    4.4000   -0.1540   -1.9190 H   0  0  0  0  0
    1.9470   -0.3200   -1.9260 H   0  0  0  0  0
    6.0640    1.7740   -0.4560 H   0  0  0  0  0
   -5.9600    1.5640    0.8280 H   0  0  0  0  0
  1  2  2  0  0  0
  1  6  1  0  0  0
  1 18  1  0  0  0
  2  3  1  0  0  0
  2 20  1  0  0  0
  3  4  2  0  0  0
  3  7  1  0  0  0
  4  5  1  0  0  0
  4  9  1  0  0  0
  5  6  2  0  0  0
  5 21  1  0  0  0
  6 22  1  0  0  0
  7  8  1  0  0  0
  7 17  2  0  0  0
  8  9  2  0  0  0
  8 10  1  0  0  0
  9 19  1  0  0  0
 10 11  1  0  0  0
 10 15  2  0  0  0
 11 12  2  0  0  0
 11 23  1  0  0  0
 12 13  1  0  0  0
 12 24  1  0  0  0
 13 14  2  0  0  0
 13 16  1  0  0  0
 14 15  1  0  0  0
 14 25  1  0  0  0
 15 26  1  0  0  0
 16 27  1  0  0  0
 18 28  1  0  0  0
M  END
$$$$
