795
  CCTOOLS-0919241027

 19 20  0  0  0  0  0  0  0  0999 V2000
    1.3870   -0.0610   -0.0040 C   0  0  0  0  0
    2.2700    1.0250    0.0010 C   0  0  0  0  0
    3.6290    0.7650    0.0050 C   0  0  0  0  0
    4.0680   -0.5470    0.0040 C   0  0  0  0  0
    3.2120   -1.5510   -0.0000 N   0  0  0  0  0
    1.9100   -1.3550   -0.0040 C   0  0  0  0  0
   -0.0760    0.1590   -0.0020 C   0  0  0  0  0
   -0.8640    1.7320   -0.0020 S   0  0  0  0  0
   -2.4020    0.9840    0.0000 C   0  0  0  0  0
   -2.2370   -0.3730    0.0010 C   0  0  0  0  0
   -0.9720   -0.7790   -0.0050 N   0  0  0  0  0
   -3.3650   -1.3070    0.0030 C   0  0  0  0  0
   -4.5030   -0.8830    0.0040 O   0  0  0  0  0
    1.9000    2.0390    0.0010 H   0  0  0  0  0
    4.3400    1.5780    0.0080 H   0  0  0  0  0
    5.1280   -0.7520    0.0070 H   0  0  0  0  0
    1.2410   -2.2020   -0.0070 H   0  0  0  0  0
   -3.3510    1.5000    0.0010 H   0  0  0  0  0
   -3.1850   -2.3720    0.0030 H   0  0  0  0  0
  1  6  2  0  0  0
  1  2  1  0  0  0
  2  3  2  0  0  0
  2 14  1  0  0  0
  3  4  1  0  0  0
  3 15  1  0  0  0
  4 16  1  0  0  0
  5  4  2  0  0  0
  6  5  1  0  0  0
  6 17  1  0  0  0
  7  1  1  0  0  0
  8  7  1  0  0  0
  9  8  1  0  0  0
  9 18  1  0  0  0
 10  9  2  0  0  0
 10 11  1  0  0  0
 11  7  2  0  0  0
 12 10  1  0  0  0
 12 19  1  0  0  0
 13 12  2  0  0  0
M  END
$$$$
