797
  CCTOOLS-0919241027

 32 35  0  0  0  0  0  0  0  0999 V2000
   -0.2870   -0.3290    0.3090 C   0  0  0  0  0
   -1.3030   -1.0890   -0.2400 C   0  0  0  0  0
   -2.6190   -0.6010   -0.2220 C   0  0  0  0  0
   -2.8830    0.6700    0.3500 C   0  0  0  0  0
   -1.8250    1.4210    0.8960 C   0  0  0  0  0
   -0.5600    0.9290    0.8730 C   0  0  0  0  0
   -3.6770   -1.3490   -0.7670 C   0  0  0  0  0
   -4.9420   -0.8520   -0.7420 C   0  0  0  0  0
   -5.2110    0.4000   -0.1790 C   0  0  0  0  0
   -4.1990    1.1590    0.3630 C   0  0  0  0  0
   -6.4850    0.8720   -0.1680 O   0  0  0  0  0
    1.1030   -0.8420    0.2970 C   0  0  0  0  0
    2.3210   -0.0590    0.0340 C   0  0  0  0  0
    3.3970   -0.9560    0.1280 C   0  0  0  0  0
    2.8840   -2.1680    0.4190 O   0  0  0  0  0
    1.4770   -2.0740    0.5180 N   0  0  0  0  0
    2.5560    1.2850   -0.2610 C   0  0  0  0  0
    3.8340    1.7250   -0.4590 C   0  0  0  0  0
    4.9060    0.8410   -0.3680 C   0  0  0  0  0
    4.6900   -0.4950   -0.0810 C   0  0  0  0  0
    6.1720    1.2930   -0.5660 O   0  0  0  0  0
   -1.0870   -2.0530   -0.6760 H   0  0  0  0  0
   -2.0200    2.3890    1.3340 H   0  0  0  0  0
    0.2460    1.5110    1.2940 H   0  0  0  0  0
   -3.4850   -2.3180   -1.2050 H   0  0  0  0  0
   -5.7510   -1.4310   -1.1620 H   0  0  0  0  0
   -4.4150    2.1250    0.7960 H   0  0  0  0  0
   -6.6050    1.3690   -0.9890 H   0  0  0  0  0
    1.7290    1.9760   -0.3330 H   0  0  0  0  0
    4.0140    2.7650   -0.6880 H   0  0  0  0  0
    5.5260   -1.1760   -0.0120 H   0  0  0  0  0
    6.5080    1.5710    0.2970 H   0  0  0  0  0
  1  2  2  0  0  0
  1  6  1  0  0  0
  1 12  1  0  0  0
  2  3  1  0  0  0
  2 22  1  0  0  0
  3  4  2  0  0  0
  3  7  1  0  0  0
  4  5  1  0  0  0
  4 10  1  0  0  0
  5  6  2  0  0  0
  5 23  1  0  0  0
  6 24  1  0  0  0
  7  8  2  0  0  0
  7 25  1  0  0  0
  8  9  1  0  0  0
  8 26  1  0  0  0
  9 10  2  0  0  0
  9 11  1  0  0  0
 10 27  1  0  0  0
 11 28  1  0  0  0
 12 13  1  0  0  0
 12 16  2  0  0  0
 13 14  2  0  0  0
 13 17  1  0  0  0
 14 15  1  0  0  0
 14 20  1  0  0  0
 15 16  1  0  0  0
 17 18  2  0  0  0
 17 29  1  0  0  0
 18 19  1  0  0  0
 18 30  1  0  0  0
 19 20  2  0  0  0
 19 21  1  0  0  0
 20 31  1  0  0  0
 21 32  1  0  0  0
M  END
$$$$
