7AP
  CCTOOLS-0919241027

 29 30  0  0  1  0  0  0  0  0999 V2000
    2.2390   -7.3770   -4.5660 N   0  0  0  0  0
    2.6600   -7.1190   -5.8180 C   0  0  0  0  0
    3.6330   -7.9910   -6.3520 N   0  0  0  0  0
    2.2520   -6.1190   -6.6070 N   0  0  0  0  0
    1.3260   -5.3180   -6.0480 C   0  0  0  0  0
    0.8430   -4.2340   -6.8260 N   0  0  0  0  0
    0.8160   -5.4780   -4.7740 C   0  0  0  0  0
    1.3180   -6.5570   -4.0440 C   0  0  0  0  0
   -0.1110   -4.6390   -4.2720 N   0  0  0  0  0
   -0.5440   -4.8790   -3.0240 C   0  0  0  0  0
   -0.0600   -5.9330   -2.2980 C   0  0  0  0  0
    0.8670   -6.7710   -2.8020 N   0  0  0  0  0
   -1.5680   -3.9630   -2.4560 C   0  0  0  0  0
   -2.4700   -3.5320   -3.4900 O   0  0  0  0  0
   -1.0220   -2.7040   -1.7310 C   0  0  0  0  0
   -0.2510   -3.0780   -0.5910 O   0  0  0  0  0
   -0.1580   -1.8250   -2.6250 C   0  0  0  0  0
   -0.3910   -6.1490   -1.2890 H   0  0  0  0  0
   -2.2060   -4.5100   -1.7360 H   0  0  0  0  0
   -1.8580   -2.1020   -1.3530 H   0  0  0  0  0
    0.6090   -2.4090   -3.1430 H   0  0  0  0  0
   -0.7730   -1.3660   -3.4070 H   0  0  0  0  0
    0.3250   -1.0280   -2.0530 H   0  0  0  0  0
   -0.2580   -4.0470   -0.5600 H   0  0  0  0  0
   -3.2650   -3.2260   -3.0350 H   0  0  0  0  0
    4.1850   -7.6890   -7.1280 H   0  0  0  0  0
    0.6820   -4.3770   -7.7980 H   0  0  0  0  0
    3.6880   -8.9280   -6.0070 H   0  0  0  0  0
    0.7680   -3.3360   -6.4020 H   0  0  0  0  0
  1  2  1  0  0  0
  1  8  2  0  0  0
  2  3  1  0  0  0
  2  4  2  0  0  0
  4  5  1  0  0  0
  5  6  1  0  0  0
  5  7  2  0  0  0
  7  8  1  0  0  0
  7  9  1  0  0  0
  8 12  1  0  0  0
  9 10  2  0  0  0
 10 11  1  0  0  0
 10 13  1  0  0  0
 11 12  2  0  0  0
 11 18  1  0  0  0
 13 14  1  0  0  0
 13 15  1  0  0  0
 13 19  1  0  0  0
 15 16  1  0  0  0
 15 17  1  0  0  0
 15 20  1  0  0  0
 17 21  1  0  0  0
 17 22  1  0  0  0
 17 23  1  0  0  0
 24 16  1  0  0  0
 25 14  1  0  0  0
 26  3  1  0  0  0
 27  6  1  0  0  0
 28  3  1  0  0  0
 29  6  1  0  0  0
M  END
$$$$
