7DG
  CCTOOLS-0919241028

 17 18  0  0  0  0  0  0  0  0999 V2000
    1.5390   -0.0000   -1.7690 N   0  0  0  0  0
    0.7500   -0.0000   -2.7860 C   0  0  0  0  0
   -0.6710    0.0000   -2.2590 C   0  0  0  0  0
   -0.4790    0.0000   -0.7620 C   0  0  0  0  0
   -1.3390    0.0010    0.3310 C   0  0  0  0  0
   -2.5500    0.0010    0.1740 O   0  0  0  0  0
   -0.8020   -0.0040    1.5730 N   0  0  0  0  0
    0.5490    0.0000    1.7240 C   0  0  0  0  0
    1.0760    0.0000    2.9880 N   0  0  0  0  0
    1.3650    0.0000    0.6940 N   0  0  0  0  0
    0.8970    0.0000   -0.5670 C   0  0  0  0  0
    1.0460   -0.0010   -3.8250 H   0  0  0  0  0
   -1.2010   -0.8960   -2.5790 H   0  0  0  0  0
   -1.2010    0.8970   -2.5800 H   0  0  0  0  0
   -1.3790   -0.0040    2.3530 H   0  0  0  0  0
    2.0380    0.0000    3.1130 H   0  0  0  0  0
    0.4880    0.0050    3.7590 H   0  0  0  0  0
  1  2  2  0  0  0
  1 11  1  0  0  0
  2  3  1  0  0  0
  2 12  1  0  0  0
  3  4  1  0  0  0
  3 13  1  0  0  0
  3 14  1  0  0  0
  4  5  1  0  0  0
  4 11  2  0  0  0
  5  6  2  0  0  0
  5  7  1  0  0  0
  7  8  1  0  0  0
  7 15  1  0  0  0
  8  9  1  0  0  0
  8 10  2  0  0  0
  9 16  1  0  0  0
  9 17  1  0  0  0
 10 11  1  0  0  0
M  END
$$$$
