7MG
  CCTOOLS-1004241126

 43 45  0  0  1  0  0  0  0  0999 V2000
    1.1930   -0.5080   -4.4080 P   0  0  0  0  0
    2.2060    0.3940   -3.8190 O   0  0  0  0  0
    1.9210   -1.8160   -5.0020 O   0  0  0  0  0
    0.4160    0.2560   -5.5930 O   0  0  0  0  0
    0.1400   -0.9490   -3.2730 O   0  0  0  0  0
   -0.4690    0.2480   -2.7880 C   0  0  0  0  0
   -1.4860   -0.1000   -1.7000 C   0  0  0  0  0
   -0.8290   -0.7440   -0.5860 O   0  0  0  0  0
   -2.1040    1.1840   -1.1050 C   0  0  0  0  0
   -3.3730    1.4520   -1.7030 O   0  0  0  0  0
   -2.2690    0.8600    0.3980 C   0  0  0  0  0
   -3.6460    0.9220    0.7750 O   0  0  0  0  0
   -1.7280   -0.5800    0.5310 C   0  0  0  0  0
   -1.0040   -0.7380    1.7950 N   0  0  0  0  0
   -1.3160   -1.7030    2.8560 C   0  0  0  0  0
   -0.3150   -1.4730    3.9060 N   0  0  0  0  0
    0.5130   -0.4240    3.4540 C   0  0  0  0  0
    1.6210    0.1990    4.0460 C   0  0  0  0  0
    2.0140   -0.1480    5.1500 O   0  0  0  0  0
    2.2450    1.1890    3.3760 N   0  0  0  0  0
    1.7980    1.5670    2.1470 C   0  0  0  0  0
    2.4450    2.5760    1.4790 N   0  0  0  0  0
    0.7570    0.9910    1.5880 N   0  0  0  0  0
    0.0960   -0.0030    2.2020 C   0  0  0  0  0
   -0.2030   -2.1900    5.1790 C   0  0  0  0  0
    2.5410   -1.5090   -5.6770 H   0  0  0  0  0
   -0.2320   -0.3650   -5.9490 H   0  0  0  0  0
   -0.9750    0.7560   -3.6090 H   0  0  0  0  0
    0.2960    0.9040   -2.3730 H   0  0  0  0  0
   -2.2670   -0.7450   -2.1040 H   0  0  0  0  0
   -1.4310    2.0300   -1.2430 H   0  0  0  0  0
   -3.7090    2.2620   -1.2940 H   0  0  0  0  0
   -1.6770    1.5460    1.0040 H   0  0  0  0  0
   -3.9400    1.8280    0.6120 H   0  0  0  0  0
   -2.5450   -1.2990    0.4700 H   0  0  0  0  0
   -1.2350   -2.7210    2.4740 H   0  0  0  0  0
   -2.3180   -1.5250    3.2450 H   0  0  0  0  0
    3.0130    1.6320    3.7690 H   0  0  0  0  0
    2.1350    2.8540    0.6030 H   0  0  0  0  0
    3.2120    3.0110    1.8830 H   0  0  0  0  0
    0.6380   -1.7930    5.7460 H   0  0  0  0  0
   -1.1210   -2.0590    5.7520 H   0  0  0  0  0
   -0.0430   -3.2510    4.9860 H   0  0  0  0  0
  1  2  2  0  0  0
  1  3  1  0  0  0
  1  4  1  0  0  0
  1  5  1  0  0  0
  3 26  1  0  0  0
  4 27  1  0  0  0
  5  6  1  0  0  0
  6  7  1  0  0  0
  6 28  1  0  0  0
  6 29  1  0  0  0
  7  8  1  0  0  0
  7  9  1  0  0  0
  7 30  1  0  0  0
  8 13  1  0  0  0
  9 10  1  0  0  0
  9 11  1  0  0  0
  9 31  1  0  0  0
 10 32  1  0  0  0
 11 12  1  0  0  0
 11 13  1  0  0  0
 11 33  1  0  0  0
 12 34  1  0  0  0
 13 14  1  0  0  0
 13 35  1  0  0  0
 14 15  1  0  0  0
 14 24  1  0  0  0
 15 16  1  0  0  0
 15 36  1  0  0  0
 15 37  1  0  0  0
 16 17  1  0  0  0
 16 25  1  0  0  0
 17 18  1  0  0  0
 17 24  2  0  0  0
 18 19  2  0  0  0
 18 20  1  0  0  0
 20 21  1  0  0  0
 20 38  1  0  0  0
 21 22  1  0  0  0
 21 23  2  0  0  0
 22 39  1  0  0  0
 22 40  1  0  0  0
 23 24  1  0  0  0
 25 41  1  0  0  0
 25 42  1  0  0  0
 25 43  1  0  0  0
M  END
$$$$
