7YG
  CCTOOLS-0919241031

 54 56  0  0  0  0  0  0  0  0999 V2000
    5.4050    4.0540   -0.4300 C   0  0  0  0  0
    5.4730    3.1720   -1.6030 N   0  0  0  0  0
    6.3310    3.7490   -2.6470 C   0  0  0  0  0
    5.9340    1.8290   -1.2260 C   0  0  0  0  0
    4.8870    1.1640   -0.3300 C   0  0  0  0  0
    5.3460   -0.1760    0.0460 N   0  0  0  0  0
    4.6140   -0.9820    1.2930 S   0  0  0  0  0
    5.2550   -2.2470    1.3840 O   0  0  0  0  0
    4.5430   -0.0670    2.3770 O   0  0  0  0  0
    2.9510   -1.3010    0.8020 C   0  0  0  0  0
    2.6430   -2.4730    0.1340 C   0  0  0  0  0
    1.3430   -2.7280   -0.2530 C   0  0  0  0  0
    0.3400   -1.8030    0.0320 C   0  0  0  0  0
    0.6560   -0.6250    0.7060 C   0  0  0  0  0
    1.9590   -0.3820    1.0920 C   0  0  0  0  0
   -1.0590   -2.0720   -0.3810 C   0  0  0  0  0
   -1.3920   -3.2990   -0.9640 C   0  0  0  0  0
   -2.6340   -3.5430   -1.3330 N   0  0  0  0  0
   -3.5760   -2.6240   -1.1530 C   0  0  0  0  0
   -3.2460   -1.3900   -0.5680 C   0  0  0  0  0
   -1.9930   -1.1500   -0.1930 N   0  0  0  0  0
   -4.2880   -0.3630   -0.3650 C   0  0  0  0  0
   -5.4500   -0.6190   -0.6160 O   0  0  0  0  0
   -3.9520    0.8570    0.0980 N   0  0  0  0  0
   -4.9490    1.7920    0.3950 C   0  0  0  0  0
   -6.1910    1.3740    0.8670 C   0  0  0  0  0
   -7.1470    2.3370    1.1470 C   0  0  0  0  0
   -6.8390    3.6710    0.9490 C   0  0  0  0  0
   -5.6530    4.0340    0.5000 N   0  0  0  0  0
   -4.7140    3.1500    0.2280 C   0  0  0  0  0
   -4.8770   -2.8800   -1.5400 N   0  0  0  0  0
    4.9950    5.0200   -0.7250 H   0  0  0  0  0
    4.7640    3.6030    0.3270 H   0  0  0  0  0
    6.4060    4.1940   -0.0220 H   0  0  0  0  0
    7.3540    3.8220   -2.2770 H   0  0  0  0  0
    6.3080    3.1110   -3.5300 H   0  0  0  0  0
    5.9680    4.7440   -2.9070 H   0  0  0  0  0
    6.0780    1.2290   -2.1240 H   0  0  0  0  0
    6.8770    1.9070   -0.6860 H   0  0  0  0  0
    4.7430    1.7640    0.5680 H   0  0  0  0  0
    3.9430    1.0860   -0.8710 H   0  0  0  0  0
    6.0790   -0.5900   -0.4360 H   0  0  0  0  0
    3.4210   -3.1890   -0.0860 H   0  0  0  0  0
    2.2050    0.5280    1.6180 H   0  0  0  0  0
    1.1040   -3.6420   -0.7750 H   0  0  0  0  0
   -0.1170    0.0950    0.9290 H   0  0  0  0  0
   -0.6290   -4.0490   -1.1120 H   0  0  0  0  0
   -5.0560   -3.5230   -2.2430 H   0  0  0  0  0
   -5.6120   -2.4170   -1.1080 H   0  0  0  0  0
   -3.0180    1.0870    0.2260 H   0  0  0  0  0
   -6.4040    0.3250    1.0120 H   0  0  0  0  0
   -3.7530    3.4860   -0.1340 H   0  0  0  0  0
   -8.1210    2.0500    1.5140 H   0  0  0  0  0
   -7.5800    4.4260    1.1650 H   0  0  0  0  0
  1  2  1  0  0  0
  1 32  1  0  0  0
  1 33  1  0  0  0
  1 34  1  0  0  0
  2  3  1  0  0  0
  2  4  1  0  0  0
  3 35  1  0  0  0
  3 36  1  0  0  0
  3 37  1  0  0  0
  4  5  1  0  0  0
  4 38  1  0  0  0
  4 39  1  0  0  0
  5  6  1  0  0  0
  5 40  1  0  0  0
  5 41  1  0  0  0
  6  7  1  0  0  0
  6 42  1  0  0  0
  7  8  2  0  0  0
  7  9  2  0  0  0
  7 10  1  0  0  0
 10 11  1  0  0  0
 10 15  2  0  0  0
 11 12  2  0  0  0
 11 43  1  0  0  0
 12 13  1  0  0  0
 12 45  1  0  0  0
 13 14  2  0  0  0
 13 16  1  0  0  0
 14 15  1  0  0  0
 14 46  1  0  0  0
 15 44  1  0  0  0
 16 17  1  0  0  0
 16 21  2  0  0  0
 17 18  2  0  0  0
 17 47  1  0  0  0
 18 19  1  0  0  0
 19 20  2  0  0  0
 19 31  1  0  0  0
 20 21  1  0  0  0
 20 22  1  0  0  0
 22 23  2  0  0  0
 22 24  1  0  0  0
 24 25  1  0  0  0
 24 50  1  0  0  0
 25 26  1  0  0  0
 25 30  2  0  0  0
 26 27  2  0  0  0
 26 51  1  0  0  0
 27 28  1  0  0  0
 27 53  1  0  0  0
 28 29  2  0  0  0
 28 54  1  0  0  0
 29 30  1  0  0  0
 30 52  1  0  0  0
 31 48  1  0  0  0
 31 49  1  0  0  0
M  END
$$$$
