833
  CCTOOLS-0919241031

 27 29  0  0  0  0  0  0  0  0999 V2000
    1.0190    0.8090    0.0570 C   0  0  0  0  0
    0.1700   -0.2960    0.0250 C   0  0  0  0  0
    0.7050   -1.5820    0.0110 C   0  0  0  0  0
    2.0730   -1.7620    0.0270 C   0  0  0  0  0
    2.9200   -0.6640    0.0580 C   0  0  0  0  0
    2.3900    0.6250    0.0730 C   0  0  0  0  0
    3.4210    1.5200    0.1030 O   0  0  0  0  0
    4.5850    0.7780   -0.3070 C   0  0  0  0  0
    4.2820   -0.5750    0.0800 O   0  0  0  0  0
   -1.3010   -0.1020    0.0080 C   0  0  0  0  0
   -2.2690   -1.1240   -0.0230 C   0  0  0  0  0
   -3.4940   -0.5350   -0.0290 C   0  0  0  0  0
   -3.3070    0.8100   -0.0020 N   0  0  0  0  0
   -1.9280    1.0560    0.0260 N   0  0  0  0  0
   -4.7210   -1.1930   -0.0580 N   0  0  0  0  0
   -4.3620    1.8260    0.0020 C   0  0  0  0  0
    0.6070    1.8070    0.0640 H   0  0  0  0  0
    0.0480   -2.4390   -0.0130 H   0  0  0  0  0
    2.4850   -2.7600    0.0160 H   0  0  0  0  0
    4.7230    0.8470   -1.3860 H   0  0  0  0  0
    5.4710    1.1360    0.2170 H   0  0  0  0  0
   -2.0720   -2.1860   -0.0400 H   0  0  0  0  0
   -4.7510   -2.1620   -0.0760 H   0  0  0  0  0
   -5.5450   -0.6820   -0.0600 H   0  0  0  0  0
   -4.6370    2.0600    1.0310 H   0  0  0  0  0
   -3.9990    2.7290   -0.4910 H   0  0  0  0  0
   -5.2340    1.4470   -0.5300 H   0  0  0  0  0
  1  2  2  0  0  0
  1  6  1  0  0  0
  1 17  1  0  0  0
  2  3  1  0  0  0
  2 10  1  0  0  0
  3  4  2  0  0  0
  3 18  1  0  0  0
  4  5  1  0  0  0
  4 19  1  0  0  0
  5  6  2  0  0  0
  5  9  1  0  0  0
  6  7  1  0  0  0
  7  8  1  0  0  0
  8  9  1  0  0  0
  8 20  1  0  0  0
  8 21  1  0  0  0
 10 11  1  0  0  0
 10 14  2  0  0  0
 11 12  2  0  0  0
 11 22  1  0  0  0
 12 13  1  0  0  0
 12 15  1  0  0  0
 13 14  1  0  0  0
 13 16  1  0  0  0
 15 23  1  0  0  0
 15 24  1  0  0  0
 16 25  1  0  0  0
 16 26  1  0  0  0
 16 27  1  0  0  0
M  END
$$$$
