834
  CCTOOLS-0919241031

 54 57  0  0  0  0  0  0  0  0999 V2000
    1.2630   -1.5890    1.6290 C   0  0  0  0  0
    0.8830   -2.8800    1.9350 C   0  0  0  0  0
    1.4830   -3.9510    1.2980 C   0  0  0  0  0
    2.4680   -3.7370    0.3500 C   0  0  0  0  0
    2.8570   -2.4510    0.0340 C   0  0  0  0  0
    2.2500   -1.3650    0.6690 C   0  0  0  0  0
    2.6620    0.0160    0.3350 C   0  0  0  0  0
    4.0930   -2.1830   -1.1550 CL  0  0  0  0  0
    3.8770    0.4010    0.0160 N   0  0  0  0  0
    3.8750    1.7180   -0.2220 C   0  0  0  0  0
    2.6200    2.1790   -0.0480 C   0  0  0  0  0
    1.8430    1.1070    0.3010 N   0  0  0  0  0
    5.0710    2.5440   -0.6170 C   0  0  0  0  0
    2.1590    3.6050   -0.2100 C   0  0  0  0  0
    0.4700    1.1280    0.5770 N   0  0  0  0  0
   -0.3600    0.2850   -0.0690 C   0  0  0  0  0
    1.0030    3.6550   -1.2110 C   0  0  0  0  0
    1.6880    4.1460    1.1410 C   0  0  0  0  0
    0.0930   -0.5640   -0.8120 O   0  0  0  0  0
   -1.8190    0.3930    0.1250 C   0  0  0  0  0
   -2.3360    1.2810    1.0720 C   0  0  0  0  0
   -3.6980    1.3780    1.2520 C   0  0  0  0  0
   -4.5630    0.5970    0.4940 C   0  0  0  0  0
   -4.0540   -0.2890   -0.4520 C   0  0  0  0  0
   -2.6880   -0.3880   -0.6410 C   0  0  0  0  0
   -2.1360   -1.3430   -1.6680 C   0  0  0  0  0
   -5.9040    0.7070    0.6920 O   0  0  0  0  0
   -6.7510    0.1900   -0.3390 C   0  0  0  0  0
   -6.2330   -1.2000   -0.7350 C   0  0  0  0  0
   -4.8880   -1.0580   -1.2050 O   0  0  0  0  0
    0.7930   -0.7540    2.1270 H   0  0  0  0  0
    0.1150   -3.0540    2.6750 H   0  0  0  0  0
    1.1820   -4.9590    1.5420 H   0  0  0  0  0
    2.9330   -4.5780   -0.1430 H   0  0  0  0  0
    5.1040    2.6410   -1.7020 H   0  0  0  0  0
    4.9950    3.5330   -0.1660 H   0  0  0  0  0
    5.9820    2.0560   -0.2690 H   0  0  0  0  0
    2.9840    4.2140   -0.5780 H   0  0  0  0  0
    0.1160    1.7480    1.2330 H   0  0  0  0  0
    0.1420    3.1270   -0.8000 H   0  0  0  0  0
    0.7330    4.6940   -1.4030 H   0  0  0  0  0
    1.3080    3.1810   -2.1440 H   0  0  0  0  0
    1.3540    5.1770    1.0230 H   0  0  0  0  0
    0.8620    3.5360    1.5090 H   0  0  0  0  0
    2.5120    4.1100    1.8540 H   0  0  0  0  0
   -1.6680    1.8900    1.6630 H   0  0  0  0  0
   -4.0960    2.0650    1.9850 H   0  0  0  0  0
   -1.8560   -2.2780   -1.1810 H   0  0  0  0  0
   -2.8940   -1.5400   -2.4250 H   0  0  0  0  0
   -1.2570   -0.9020   -2.1390 H   0  0  0  0  0
   -7.7730    0.1080    0.0320 H   0  0  0  0  0
   -6.7260    0.8520   -1.2040 H   0  0  0  0  0
   -6.2510   -1.8600    0.1320 H   0  0  0  0  0
   -6.8580   -1.6140   -1.5260 H   0  0  0  0  0
  1  2  1  0  0  0
  1 31  1  0  0  0
  2  3  2  0  0  0
  2 32  1  0  0  0
  3 33  1  0  0  0
  4  3  1  0  0  0
  4 34  1  0  0  0
  5  4  2  0  0  0
  5  8  1  0  0  0
  6  1  2  0  0  0
  6  5  1  0  0  0
  7  6  1  0  0  0
  9  7  2  0  0  0
 10  9  1  0  0  0
 10 11  2  0  0  0
 11 12  1  0  0  0
 12  7  1  0  0  0
 12 15  1  0  0  0
 13 10  1  0  0  0
 13 35  1  0  0  0
 13 36  1  0  0  0
 13 37  1  0  0  0
 14 11  1  0  0  0
 14 18  1  0  0  0
 14 38  1  0  0  0
 15 16  1  0  0  0
 15 39  1  0  0  0
 16 20  1  0  0  0
 17 14  1  0  0  0
 17 40  1  0  0  0
 17 41  1  0  0  0
 17 42  1  0  0  0
 18 43  1  0  0  0
 18 44  1  0  0  0
 18 45  1  0  0  0
 19 16  2  0  0  0
 20 25  2  0  0  0
 20 21  1  0  0  0
 21 22  2  0  0  0
 21 46  1  0  0  0
 22 23  1  0  0  0
 22 47  1  0  0  0
 23 27  1  0  0  0
 24 23  2  0  0  0
 24 30  1  0  0  0
 25 24  1  0  0  0
 26 25  1  0  0  0
 26 48  1  0  0  0
 26 49  1  0  0  0
 26 50  1  0  0  0
 27 28  1  0  0  0
 28 51  1  0  0  0
 28 52  1  0  0  0
 29 28  1  0  0  0
 29 53  1  0  0  0
 29 54  1  0  0  0
 30 29  1  0  0  0
M  END
$$$$
