870
  CCTOOLS-0919241032

 45 48  0  0  0  0  0  0  0  0999 V2000
    3.9260   -0.8240   -2.1160 C   0  0  0  0  0
    4.3560    0.4880   -2.0680 C   0  0  0  0  0
    4.2210    1.2180   -0.9010 C   0  0  0  0  0
    3.6550    0.6340    0.2190 C   0  0  0  0  0
    3.2250   -0.6780    0.1710 C   0  0  0  0  0
    3.3650   -1.4100   -0.9940 C   0  0  0  0  0
    2.5050   -1.4220    1.5970 S   0  0  0  0  0
    3.1630   -2.6710    1.7550 O   0  0  0  0  0
    2.4420   -0.3950    2.5770 O   0  0  0  0  0
    0.9320   -1.7850    1.2250 N   0  0  0  0  0
    0.0460   -0.7760    0.9240 C   0  0  0  0  0
    0.3110    0.5030    0.9990 N   0  0  0  0  0
   -0.7980    1.2010    0.6280 C   0  0  0  0  0
   -1.0850    2.5630    0.5200 C   0  0  0  0  0
   -2.3390    2.9730    0.1030 C   0  0  0  0  0
   -3.3180    2.0380   -0.2030 C   0  0  0  0  0
   -3.0440    0.6770   -0.1060 C   0  0  0  0  0
   -1.7820    0.2540    0.3130 C   0  0  0  0  0
   -1.2200   -0.9610    0.5100 O   0  0  0  0  0
    4.7620    2.8670   -0.8400 CL  0  0  0  0  0
    2.8250   -3.0590   -1.0550 CL  0  0  0  0  0
   -2.6160    4.3000   -0.0010 O   0  0  0  0  0
   -1.4300    5.0010    0.3820 C   0  0  0  0  0
   -4.7760   -2.2990   -1.6190 C   0  0  0  0  0
   -6.0400   -2.1880   -1.0720 C   0  0  0  0  0
   -6.3380   -1.1420   -0.2060 C   0  0  0  0  0
   -5.3620   -0.2100    0.1150 C   0  0  0  0  0
   -4.0900   -0.3190   -0.4410 C   0  0  0  0  0
   -3.8010   -1.3720   -1.3080 C   0  0  0  0  0
   -7.6160   -1.0330    0.3450 N   0  0  0  0  0
    4.0310   -1.3940   -3.0270 H   0  0  0  0  0
    4.7970    0.9430   -2.9420 H   0  0  0  0  0
    3.5490    1.2040    1.1300 H   0  0  0  0  0
    0.6360   -2.7090    1.2190 H   0  0  0  0  0
   -0.3290    3.2960    0.7610 H   0  0  0  0  0
   -4.2940    2.3680   -0.5270 H   0  0  0  0  0
   -1.1690    4.7390    1.4070 H   0  0  0  0  0
   -0.6130    4.7220   -0.2830 H   0  0  0  0  0
   -1.6050    6.0740    0.3140 H   0  0  0  0  0
   -4.5500   -3.1130   -2.2920 H   0  0  0  0  0
   -6.7990   -2.9150   -1.3180 H   0  0  0  0  0
   -5.5910    0.6040    0.7880 H   0  0  0  0  0
   -2.8140   -1.4620   -1.7380 H   0  0  0  0  0
   -8.2970   -1.6880    0.1240 H   0  0  0  0  0
   -7.8240   -0.3030    0.9500 H   0  0  0  0  0
  1  2  1  0  0  0
  1  6  2  0  0  0
  1 31  1  0  0  0
  2  3  2  0  0  0
  2 32  1  0  0  0
  3  4  1  0  0  0
  3 20  1  0  0  0
  4  5  2  0  0  0
  4 33  1  0  0  0
  5  6  1  0  0  0
  5  7  1  0  0  0
  6 21  1  0  0  0
  7  8  2  0  0  0
  7  9  2  0  0  0
  7 10  1  0  0  0
 10 11  1  0  0  0
 10 34  1  0  0  0
 11 12  2  0  0  0
 11 19  1  0  0  0
 12 13  1  0  0  0
 13 14  1  0  0  0
 13 18  2  0  0  0
 14 15  2  0  0  0
 14 35  1  0  0  0
 15 16  1  0  0  0
 15 22  1  0  0  0
 16 17  2  0  0  0
 16 36  1  0  0  0
 17 18  1  0  0  0
 17 28  1  0  0  0
 18 19  1  0  0  0
 22 23  1  0  0  0
 23 37  1  0  0  0
 23 38  1  0  0  0
 23 39  1  0  0  0
 24 25  1  0  0  0
 24 29  2  0  0  0
 24 40  1  0  0  0
 25 26  2  0  0  0
 25 41  1  0  0  0
 26 27  1  0  0  0
 26 30  1  0  0  0
 27 28  2  0  0  0
 27 42  1  0  0  0
 28 29  1  0  0  0
 29 43  1  0  0  0
 30 44  1  0  0  0
 30 45  1  0  0  0
M  END
$$$$
