880
  CCTOOLS-0919241032

 69 73  0  0  0  0  0  0  0  0999 V2000
    1.1770    0.3300    2.7140 N   0  0  0  0  0
    0.2000    0.0630    3.6030 C   0  0  0  0  0
   -0.9250   -0.1260    2.9720 N   0  0  0  0  0
   -0.7280    0.0080    1.6490 C   0  0  0  0  0
    0.6090    0.3070    1.4590 C   0  0  0  0  0
    2.5830    0.6010    3.0240 C   0  0  0  0  0
    3.3660   -0.7120    3.0320 C   0  0  0  0  0
    4.8350   -0.4290    3.3570 C   0  0  0  0  0
    0.3800   -0.0050    5.0980 C   0  0  0  0  0
   -0.5140    1.0400    5.7710 C   0  0  0  0  0
   -0.4110    0.8870    7.2900 C   0  0  0  0  0
   -0.8790   -0.4440    7.6880 N   0  0  0  0  0
    0.0590   -1.4220    7.1270 C   0  0  0  0  0
   -0.0170   -1.3960    5.5990 C   0  0  0  0  0
   -1.7560   -0.1300    0.5900 C   0  0  0  0  0
    1.2900    0.5430    0.1730 C   0  0  0  0  0
   -1.7630    0.7440   -0.4950 C   0  0  0  0  0
   -2.7190    0.6060   -1.4820 C   0  0  0  0  0
   -3.6770   -0.3900   -1.3870 C   0  0  0  0  0
   -3.6760   -1.2570   -0.3080 C   0  0  0  0  0
   -2.7220   -1.1310    0.6800 C   0  0  0  0  0
   -2.7270    1.6890   -2.8380 CL  0  0  0  0  0
   -4.8810   -0.5530   -2.6270 CL  0  0  0  0  0
    2.2590    1.5490    0.0550 C   0  0  0  0  0
    2.8700    1.7320   -1.1690 C   0  0  0  0  0
    2.5260    0.9590   -2.1880 N   0  0  0  0  0
    1.6060    0.0150   -2.0500 C   0  0  0  0  0
    0.9980   -0.1990   -0.8940 N   0  0  0  0  0
    1.2770   -0.7700   -3.1410 N   0  0  0  0  0
    1.9430   -0.5520   -4.4280 C   0  0  0  0  0
    2.0170   -1.8750   -5.1940 C   0  0  0  0  0
    2.7120   -1.6470   -6.5380 C   0  0  0  0  0
    1.9180   -0.6270   -7.3560 C   0  0  0  0  0
    1.8450    0.6940   -6.5900 C   0  0  0  0  0
    1.1490    0.4670   -5.2460 C   0  0  0  0  0
    2.6540    1.0730    4.0050 H   0  0  0  0  0
    3.0000    1.2680    2.2700 H   0  0  0  0  0
    3.2950   -1.1830    2.0520 H   0  0  0  0  0
    2.9500   -1.3790    3.7870 H   0  0  0  0  0
    5.3930   -1.3650    3.3630 H   0  0  0  0  0
    5.2510    0.2370    2.6020 H   0  0  0  0  0
    4.9060    0.0420    4.3370 H   0  0  0  0  0
    1.4230    0.1900    5.3490 H   0  0  0  0  0
   -0.1870    2.0390    5.4830 H   0  0  0  0  0
   -1.5470    0.8900    5.4590 H   0  0  0  0  0
    0.6260    1.0130    7.5970 H   0  0  0  0  0
   -1.0260    1.6470    7.7730 H   0  0  0  0  0
   -0.7870   -0.4960    8.6910 H   0  0  0  0  0
    1.0720   -1.1740    7.4430 H   0  0  0  0  0
   -0.1980   -2.4180    7.4860 H   0  0  0  0  0
   -1.0360   -1.6200    5.2820 H   0  0  0  0  0
    0.6640   -2.1410    5.1880 H   0  0  0  0  0
   -1.0170    1.5210   -0.5690 H   0  0  0  0  0
   -4.4250   -2.0320   -0.2390 H   0  0  0  0  0
   -2.7230   -1.8080    1.5210 H   0  0  0  0  0
    2.5220    2.1660    0.9010 H   0  0  0  0  0
    3.6210    2.4980   -1.2950 H   0  0  0  0  0
    0.6060   -1.4650   -3.0540 H   0  0  0  0  0
    2.9510   -0.1750   -4.2560 H   0  0  0  0  0
    2.5820   -2.6020   -4.6100 H   0  0  0  0  0
    1.0090   -2.2520   -5.3650 H   0  0  0  0  0
    3.7200   -1.2700   -6.3660 H   0  0  0  0  0
    2.7650   -2.5900   -7.0830 H   0  0  0  0  0
    2.4140   -0.4650   -8.3140 H   0  0  0  0  0
    0.9100   -1.0050   -7.5280 H   0  0  0  0  0
    2.8530    1.0710   -6.4190 H   0  0  0  0  0
    1.2790    1.4210   -7.1740 H   0  0  0  0  0
    0.1410    0.0890   -5.4180 H   0  0  0  0  0
    1.0970    1.4090   -4.7010 H   0  0  0  0  0
  1  2  1  0  0  0
  1  5  1  0  0  0
  1  6  1  0  0  0
  2  3  2  0  0  0
  2  9  1  0  0  0
  3  4  1  0  0  0
  4  5  2  0  0  0
  4 15  1  0  0  0
  5 16  1  0  0  0
  6  7  1  0  0  0
  6 36  1  0  0  0
  6 37  1  0  0  0
  7  8  1  0  0  0
  7 38  1  0  0  0
  7 39  1  0  0  0
  8 40  1  0  0  0
  8 41  1  0  0  0
  8 42  1  0  0  0
  9 10  1  0  0  0
  9 14  1  0  0  0
  9 43  1  0  0  0
 10 11  1  0  0  0
 10 44  1  0  0  0
 10 45  1  0  0  0
 11 12  1  0  0  0
 11 46  1  0  0  0
 11 47  1  0  0  0
 12 13  1  0  0  0
 12 48  1  0  0  0
 13 14  1  0  0  0
 13 49  1  0  0  0
 13 50  1  0  0  0
 14 51  1  0  0  0
 14 52  1  0  0  0
 15 17  2  0  0  0
 15 21  1  0  0  0
 16 24  2  0  0  0
 16 28  1  0  0  0
 17 18  1  0  0  0
 17 53  1  0  0  0
 18 19  2  0  0  0
 18 22  1  0  0  0
 19 20  1  0  0  0
 19 23  1  0  0  0
 20 21  2  0  0  0
 20 54  1  0  0  0
 21 55  1  0  0  0
 24 25  1  0  0  0
 24 56  1  0  0  0
 25 26  2  0  0  0
 25 57  1  0  0  0
 26 27  1  0  0  0
 27 28  2  0  0  0
 27 29  1  0  0  0
 29 30  1  0  0  0
 29 58  1  0  0  0
 30 31  1  0  0  0
 30 35  1  0  0  0
 30 59  1  0  0  0
 31 32  1  0  0  0
 31 60  1  0  0  0
 31 61  1  0  0  0
 32 33  1  0  0  0
 32 62  1  0  0  0
 32 63  1  0  0  0
 33 34  1  0  0  0
 33 64  1  0  0  0
 33 65  1  0  0  0
 34 35  1  0  0  0
 34 66  1  0  0  0
 34 67  1  0  0  0
 35 68  1  0  0  0
 35 69  1  0  0  0
M  END
$$$$
