889
  CCTOOLS-0919241032

 57 59  0  0  0  0  0  0  0  0999 V2000
    3.6520   -1.9180   -0.2740 O   0  0  0  0  0
    2.8940   -0.9720   -0.2340 C   0  0  0  0  0
    3.4340    0.4320   -0.3260 C   0  0  0  0  0
    3.6680    0.9840    1.0820 C   0  0  0  0  0
    4.2740    2.3850    0.9820 C   0  0  0  0  0
    5.5420    2.3200    0.2450 N   0  0  0  0  0
    6.2200    3.6230    0.2490 C   0  0  0  0  0
    5.3360    1.8380   -1.1260 C   0  0  0  0  0
    4.7620    0.4190   -1.0880 C   0  0  0  0  0
    1.5670   -1.1770   -0.1130 N   0  0  0  0  0
    0.5120   -0.1580   -0.1590 C   0  0  0  0  0
    0.8900   -2.4640    0.0860 C   0  0  0  0  0
    1.3680   -3.1070    1.3890 C   0  0  0  0  0
    1.1870   -3.3940   -1.0920 C   0  0  0  0  0
   -0.5910   -2.1890    0.1630 C   0  0  0  0  0
   -1.7910   -2.7920    0.3210 N   0  0  0  0  0
   -2.7810   -1.8040    0.2790 N   0  0  0  0  0
   -2.1950   -0.6440    0.1020 C   0  0  0  0  0
   -0.8080   -0.8650    0.0230 C   0  0  0  0  0
   -2.8380    0.5980    0.0060 N   0  0  0  0  0
   -4.1810    0.6700    0.0960 C   0  0  0  0  0
   -4.8330   -0.3400    0.2610 O   0  0  0  0  0
   -4.8720    2.0050   -0.0070 C   0  0  0  0  0
   -6.3840    1.8080    0.1260 C   0  0  0  0  0
   -7.0760    3.1720    0.1460 C   0  0  0  0  0
   -6.8990    0.9920   -1.0610 C   0  0  0  0  0
    2.7180    1.0640   -0.8510 H   0  0  0  0  0
    2.7190    1.0350    1.6160 H   0  0  0  0  0
    4.3530    0.3290    1.6210 H   0  0  0  0  0
    5.4650   -0.2440   -0.5840 H   0  0  0  0  0
    4.5950    0.0680   -2.1060 H   0  0  0  0  0
    3.5820    3.0430    0.4560 H   0  0  0  0  0
    4.4550    2.7760    1.9830 H   0  0  0  0  0
    6.4280    3.9230    1.2760 H   0  0  0  0  0
    7.1570    3.5470   -0.3030 H   0  0  0  0  0
    5.5800    4.3680   -0.2240 H   0  0  0  0  0
    4.6390    2.4980   -1.6420 H   0  0  0  0  0
    6.2890    1.8300   -1.6560 H   0  0  0  0  0
    0.6590    0.5630    0.6440 H   0  0  0  0  0
    0.5300    0.3500   -1.1230 H   0  0  0  0  0
    1.1380   -2.4460    2.2250 H   0  0  0  0  0
    0.8610   -4.0610    1.5300 H   0  0  0  0  0
    2.4440   -3.2700    1.3400 H   0  0  0  0  0
    2.2620   -3.5600   -1.1610 H   0  0  0  0  0
    0.6810   -4.3470   -0.9380 H   0  0  0  0  0
    0.8300   -2.9380   -2.0150 H   0  0  0  0  0
   -1.9390   -3.7430    0.4410 H   0  0  0  0  0
   -2.3170    1.4050   -0.1260 H   0  0  0  0  0
   -4.5190    2.6600    0.7890 H   0  0  0  0  0
   -4.6490    2.4560   -0.9740 H   0  0  0  0  0
   -6.6000    1.2770    1.0530 H   0  0  0  0  0
   -6.8590    3.7030   -0.7810 H   0  0  0  0  0
   -8.1530    3.0320    0.2420 H   0  0  0  0  0
   -6.7090    3.7540    0.9920 H   0  0  0  0  0
   -6.4060    0.0200   -1.0750 H   0  0  0  0  0
   -7.9760    0.8520   -0.9660 H   0  0  0  0  0
   -6.6820    1.5230   -1.9880 H   0  0  0  0  0
  1  2  2  0  0  0
  2  3  1  0  0  0
  2 10  1  0  0  0
  3  4  1  0  0  0
  3  9  1  0  0  0
  3 27  1  0  0  0
  4  5  1  0  0  0
  4 28  1  0  0  0
  4 29  1  0  0  0
  5  6  1  0  0  0
  5 32  1  0  0  0
  5 33  1  0  0  0
  6  7  1  0  0  0
  6  8  1  0  0  0
  7 34  1  0  0  0
  7 35  1  0  0  0
  7 36  1  0  0  0
  8  9  1  0  0  0
  8 37  1  0  0  0
  8 38  1  0  0  0
  9 30  1  0  0  0
  9 31  1  0  0  0
 10 11  1  0  0  0
 10 12  1  0  0  0
 11 19  1  0  0  0
 11 39  1  0  0  0
 11 40  1  0  0  0
 12 13  1  0  0  0
 12 14  1  0  0  0
 12 15  1  0  0  0
 13 41  1  0  0  0
 13 42  1  0  0  0
 13 43  1  0  0  0
 14 44  1  0  0  0
 14 45  1  0  0  0
 14 46  1  0  0  0
 15 16  1  0  0  0
 15 19  2  0  0  0
 16 17  1  0  0  0
 16 47  1  0  0  0
 17 18  2  0  0  0
 18 19  1  0  0  0
 18 20  1  0  0  0
 20 21  1  0  0  0
 20 48  1  0  0  0
 21 22  2  0  0  0
 21 23  1  0  0  0
 23 24  1  0  0  0
 23 49  1  0  0  0
 23 50  1  0  0  0
 24 25  1  0  0  0
 24 26  1  0  0  0
 24 51  1  0  0  0
 25 52  1  0  0  0
 25 53  1  0  0  0
 25 54  1  0  0  0
 26 55  1  0  0  0
 26 56  1  0  0  0
 26 57  1  0  0  0
M  END
$$$$
