893
  CCTOOLS-0919241032

 44 45  0  0  0  0  0  0  0  0999 V2000
   -4.0070    0.4240   -1.3310 C   0  0  0  0  0
   -2.9920   -0.5030   -1.1450 C   0  0  0  0  0
   -2.6700   -0.9300    0.1350 C   0  0  0  0  0
   -3.3520   -0.4250    1.2240 C   0  0  0  0  0
   -4.3630    0.5060    1.0390 C   0  0  0  0  0
   -4.6890    0.9300   -0.2410 C   0  0  0  0  0
   -1.5710   -1.9420    0.3370 C   0  0  0  0  0
   -0.2710   -1.2700    0.2670 N   0  0  0  0  0
    0.8640   -1.9820    0.4200 C   0  0  0  0  0
    2.1800   -1.3030    0.3490 C   0  0  0  0  0
    2.2290    0.0070    0.1340 N   0  0  0  0  0
    3.3760    0.6550    0.0630 C   0  0  0  0  0
    4.5940   -0.0310    0.2090 C   0  0  0  0  0
    4.5720   -1.4100    0.4420 C   0  0  0  0  0
    3.3460   -2.0470    0.5090 C   0  0  0  0  0
   -5.0340    1.0040    2.1110 O   0  0  0  0  0
   -5.9990    1.9270    1.6020 C   0  0  0  0  0
   -2.3210   -1.0000   -2.2170 O   0  0  0  0  0
   -2.8820   -0.3850   -3.3780 C   0  0  0  0  0
    5.8380    0.6740    0.1310 C   0  0  0  0  0
    6.8250    1.2330    0.0700 N   0  0  0  0  0
    3.3790    1.9910   -0.1590 O   0  0  0  0  0
    2.0130    2.3950   -0.2690 C   0  0  0  0  0
    1.9460    3.9030   -0.5210 C   0  0  0  0  0
    0.8080   -3.1790    0.6160 O   0  0  0  0  0
   -4.2610    0.7540   -2.3270 H   0  0  0  0  0
   -3.0980   -0.7550    2.2210 H   0  0  0  0  0
   -5.4760    1.6550   -0.3860 H   0  0  0  0  0
   -1.6300   -2.7020   -0.4420 H   0  0  0  0  0
   -1.6850   -2.4120    1.3130 H   0  0  0  0  0
   -0.2260   -0.3140    0.1100 H   0  0  0  0  0
    5.4910   -1.9640    0.5630 H   0  0  0  0  0
    3.2930   -3.1120    0.6850 H   0  0  0  0  0
   -6.5650    2.3540    2.4300 H   0  0  0  0  0
   -5.4900    2.7240    1.0610 H   0  0  0  0  0
   -6.6790    1.4060    0.9280 H   0  0  0  0  0
   -3.9430   -0.6270   -3.4400 H   0  0  0  0  0
   -2.7590    0.6960   -3.3120 H   0  0  0  0  0
   -2.3730   -0.7550   -4.2680 H   0  0  0  0  0
    1.4880    2.1580    0.6560 H   0  0  0  0  0
    1.5440    1.8670   -1.0990 H   0  0  0  0  0
    2.4710    4.1400   -1.4470 H   0  0  0  0  0
    0.9040    4.2110   -0.6050 H   0  0  0  0  0
    2.4150    4.4310    0.3090 H   0  0  0  0  0
  1  2  2  0  0  0
  1  6  1  0  0  0
  1 26  1  0  0  0
  2  3  1  0  0  0
  2 18  1  0  0  0
  3  4  2  0  0  0
  3  7  1  0  0  0
  4  5  1  0  0  0
  4 27  1  0  0  0
  5  6  2  0  0  0
  5 16  1  0  0  0
  6 28  1  0  0  0
  7  8  1  0  0  0
  7 29  1  0  0  0
  7 30  1  0  0  0
  8  9  1  0  0  0
  8 31  1  0  0  0
  9 10  1  0  0  0
  9 25  2  0  0  0
 10 11  1  0  0  0
 10 15  2  0  0  0
 11 12  2  0  0  0
 12 13  1  0  0  0
 12 22  1  0  0  0
 13 14  2  0  0  0
 13 20  1  0  0  0
 14 15  1  0  0  0
 14 32  1  0  0  0
 15 33  1  0  0  0
 16 17  1  0  0  0
 17 34  1  0  0  0
 17 35  1  0  0  0
 17 36  1  0  0  0
 18 19  1  0  0  0
 19 37  1  0  0  0
 19 38  1  0  0  0
 19 39  1  0  0  0
 20 21  3  0  0  0
 22 23  1  0  0  0
 23 24  1  0  0  0
 23 40  1  0  0  0
 23 41  1  0  0  0
 24 42  1  0  0  0
 24 43  1  0  0  0
 24 44  1  0  0  0
M  END
$$$$
