8HG
  CCTOOLS-0919241033

 33 35  0  0  1  0  0  0  0  0999 V2000
    4.4470   -1.6380    0.0190 O   0  0  0  0  0
    3.6670   -0.7010    0.0720 C   0  0  0  0  0
    4.1140    0.5600    0.2650 N   0  0  0  0  0
    3.2330    1.5970    0.3210 C   0  0  0  0  0
    3.7090    2.8680    0.5180 N   0  0  0  0  0
    1.9380    1.4100    0.1910 N   0  0  0  0  0
    1.4320    0.1860   -0.0040 C   0  0  0  0  0
    2.2870   -0.9060   -0.0740 C   0  0  0  0  0
    1.4910   -2.0340   -0.2870 N   0  0  0  0  0
    0.2070   -1.6280   -0.3470 C   0  0  0  0  0
   -0.7520   -2.3560   -0.5220 O   0  0  0  0  0
    0.1500   -0.2950   -0.1700 N   0  0  0  0  0
   -1.0720    0.5140   -0.1720 C   0  0  0  0  0
   -2.0200   -0.0070    0.7860 O   0  0  0  0  0
   -1.7880    0.4040   -1.5360 C   0  0  0  0  0
   -3.2900    0.4010   -1.1720 C   0  0  0  0  0
   -3.9500    1.5240   -1.7590 O   0  0  0  0  0
   -3.3030    0.5080    0.3680 C   0  0  0  0  0
   -4.4340   -0.3420    0.9520 C   0  0  0  0  0
   -4.4550   -0.1950    2.3730 O   0  0  0  0  0
    5.0640    0.7260    0.3650 H   0  0  0  0  0
    4.6620    3.0200    0.6160 H   0  0  0  0  0
    3.0920    3.6150    0.5600 H   0  0  0  0  0
   -0.8380    1.5540    0.0540 H   0  0  0  0  0
   -1.5490    1.2630   -2.1630 H   0  0  0  0  0
   -1.5140   -0.5240   -2.0380 H   0  0  0  0  0
   -3.7590   -0.5280   -1.4970 H   0  0  0  0  0
   -3.9190    1.5390   -2.7250 H   0  0  0  0  0
   -3.4130    1.5480    0.6750 H   0  0  0  0  0
   -5.3870   -0.0130    0.5380 H   0  0  0  0  0
   -4.2690   -1.3890    0.6970 H   0  0  0  0  0
   -5.1490   -0.7070    2.8110 H   0  0  0  0  0
    1.8060   -2.9470   -0.3760 H   0  0  0  0  0
  1  2  2  0  0  0
  2  3  1  0  0  0
  2  8  1  0  0  0
  3  4  1  0  0  0
  3 21  1  0  0  0
  4  5  1  0  0  0
  4  6  2  0  0  0
  5 22  1  0  0  0
  5 23  1  0  0  0
  6  7  1  0  0  0
  7  8  2  0  0  0
  7 12  1  0  0  0
  8  9  1  0  0  0
  9 10  1  0  0  0
  9 33  1  0  0  0
 10 11  2  0  0  0
 10 12  1  0  0  0
 12 13  1  0  0  0
 13 14  1  0  0  0
 13 15  1  0  0  0
 13 24  1  0  0  0
 14 18  1  0  0  0
 15 16  1  0  0  0
 15 25  1  0  0  0
 15 26  1  0  0  0
 16 17  1  0  0  0
 16 18  1  0  0  0
 16 27  1  0  0  0
 17 28  1  0  0  0
 18 19  1  0  0  0
 18 29  1  0  0  0
 19 20  1  0  0  0
 19 30  1  0  0  0
 19 31  1  0  0  0
 20 32  1  0  0  0
M  END
$$$$
