8K6
  CCTOOLS-0919241033

 56 55  0  0  0  0  0  0  0  0999 V2000
   10.6220   -0.3630    0.0010 C   0  0  0  0  0
    9.3660    0.5110   -0.0020 C   0  0  0  0  0
    8.1230   -0.3820    0.0010 C   0  0  0  0  0
    6.8670    0.4920   -0.0020 C   0  0  0  0  0
    5.6250   -0.4000    0.0010 C   0  0  0  0  0
    4.3690    0.4740   -0.0020 C   0  0  0  0  0
    3.1260   -0.4190    0.0010 C   0  0  0  0  0
    1.8710    0.4560   -0.0020 C   0  0  0  0  0
    0.6280   -0.4370    0.0010 C   0  0  0  0  0
   -0.6280    0.4370   -0.0010 C   0  0  0  0  0
   -1.8710   -0.4560    0.0020 C   0  0  0  0  0
   -3.1260    0.4190   -0.0010 C   0  0  0  0  0
   -4.3690   -0.4740    0.0020 C   0  0  0  0  0
   -5.6250    0.4000   -0.0010 C   0  0  0  0  0
   -6.8670   -0.4920    0.0020 C   0  0  0  0  0
   -8.1230    0.3820   -0.0010 C   0  0  0  0  0
   -9.3660   -0.5110    0.0020 C   0  0  0  0  0
  -10.6220    0.3630   -0.0010 C   0  0  0  0  0
   10.6260   -0.9900    0.8930 H   0  0  0  0  0
   10.6260   -0.9960   -0.8870 H   0  0  0  0  0
   11.5070    0.2730   -0.0010 H   0  0  0  0  0
    9.3610    1.1430    0.8860 H   0  0  0  0  0
    9.3610    1.1370   -0.8940 H   0  0  0  0  0
    8.1280   -1.0140   -0.8870 H   0  0  0  0  0
    8.1280   -1.0080    0.8930 H   0  0  0  0  0
    6.8630    1.1250    0.8860 H   0  0  0  0  0
    6.8630    1.1190   -0.8940 H   0  0  0  0  0
    5.6290   -1.0320   -0.8870 H   0  0  0  0  0
    5.6290   -1.0270    0.8930 H   0  0  0  0  0
    4.3640    1.1060    0.8860 H   0  0  0  0  0
    4.3640    1.1000   -0.8940 H   0  0  0  0  0
    3.1310   -1.0510   -0.8870 H   0  0  0  0  0
    3.1310   -1.0450    0.8930 H   0  0  0  0  0
    1.8660    1.0880    0.8860 H   0  0  0  0  0
    1.8660    1.0820   -0.8930 H   0  0  0  0  0
    0.6320   -1.0690   -0.8870 H   0  0  0  0  0
    0.6320   -1.0630    0.8930 H   0  0  0  0  0
   -0.6320    1.0690    0.8870 H   0  0  0  0  0
   -0.6320    1.0630   -0.8930 H   0  0  0  0  0
   -1.8660   -1.0880   -0.8860 H   0  0  0  0  0
   -1.8660   -1.0820    0.8930 H   0  0  0  0  0
   -3.1310    1.0510    0.8870 H   0  0  0  0  0
   -3.1310    1.0450   -0.8930 H   0  0  0  0  0
   -4.3640   -1.1060   -0.8860 H   0  0  0  0  0
   -4.3640   -1.1000    0.8940 H   0  0  0  0  0
   -5.6290    1.0320    0.8870 H   0  0  0  0  0
   -5.6290    1.0270   -0.8930 H   0  0  0  0  0
   -6.8630   -1.1250   -0.8860 H   0  0  0  0  0
   -6.8630   -1.1190    0.8940 H   0  0  0  0  0
   -8.1280    1.0140    0.8870 H   0  0  0  0  0
   -8.1280    1.0080   -0.8930 H   0  0  0  0  0
   -9.3610   -1.1430   -0.8860 H   0  0  0  0  0
   -9.3610   -1.1370    0.8940 H   0  0  0  0  0
  -10.6260    0.9960    0.8870 H   0  0  0  0  0
  -10.6260    0.9900   -0.8930 H   0  0  0  0  0
  -11.5070   -0.2730    0.0010 H   0  0  0  0  0
  1  2  1  0  0  0
  1 19  1  0  0  0
  1 20  1  0  0  0
  1 21  1  0  0  0
  2  3  1  0  0  0
  2 22  1  0  0  0
  2 23  1  0  0  0
  3  4  1  0  0  0
  3 24  1  0  0  0
  3 25  1  0  0  0
  4  5  1  0  0  0
  4 26  1  0  0  0
  4 27  1  0  0  0
  5  6  1  0  0  0
  5 28  1  0  0  0
  5 29  1  0  0  0
  6  7  1  0  0  0
  6 30  1  0  0  0
  6 31  1  0  0  0
  7  8  1  0  0  0
  7 32  1  0  0  0
  7 33  1  0  0  0
  8  9  1  0  0  0
  8 34  1  0  0  0
  8 35  1  0  0  0
  9 10  1  0  0  0
  9 36  1  0  0  0
  9 37  1  0  0  0
 10 11  1  0  0  0
 10 38  1  0  0  0
 10 39  1  0  0  0
 11 12  1  0  0  0
 11 40  1  0  0  0
 11 41  1  0  0  0
 12 13  1  0  0  0
 12 42  1  0  0  0
 12 43  1  0  0  0
 13 14  1  0  0  0
 13 44  1  0  0  0
 13 45  1  0  0  0
 14 15  1  0  0  0
 14 46  1  0  0  0
 14 47  1  0  0  0
 15 16  1  0  0  0
 15 48  1  0  0  0
 15 49  1  0  0  0
 16 17  1  0  0  0
 16 50  1  0  0  0
 16 51  1  0  0  0
 17 18  1  0  0  0
 17 52  1  0  0  0
 17 53  1  0  0  0
 18 54  1  0  0  0
 18 55  1  0  0  0
 18 56  1  0  0  0
M  END
$$$$
