8LR
  CCTOOLS-1004241128

 31 31  0  0  1  0  0  0  0  0999 V2000
    3.3720   -0.1960   -1.5570 O   0  0  0  0  0
    3.6150   -1.0400   -0.4300 C   0  0  0  0  0
    2.5660   -0.7640    0.6490 C   0  0  0  0  0
    1.2750   -1.1410    0.1660 O   0  0  0  0  0
    0.2170   -0.9230    1.1020 C   0  0  0  0  0
    0.0010    0.4810    1.2580 O   0  0  0  0  0
   -0.3360    1.1580    0.0450 C   0  0  0  0  0
   -0.5160    2.6510    0.3270 C   0  0  0  0  0
    0.7330    3.2120    0.7380 O   0  0  0  0  0
   -1.6400    0.5830   -0.5130 C   0  0  0  0  0
   -1.9490    1.2180   -1.7560 O   0  0  0  0  0
   -1.4720   -0.9230   -0.7360 C   0  0  0  0  0
   -2.7070   -1.4810   -1.1880 O   0  0  0  0  0
   -1.0650   -1.5810    0.5860 C   0  0  0  0  0
   -2.1090   -1.4090    1.5460 O   0  0  0  0  0
    3.5530   -2.0840   -0.7380 H   0  0  0  0  0
    4.6090   -0.8370   -0.0310 H   0  0  0  0  0
    2.8020   -1.3430    1.5420 H   0  0  0  0  0
    2.5660    0.2980    0.8940 H   0  0  0  0  0
    0.4880   -1.3580    2.0640 H   0  0  0  0  0
   -0.8890   -2.6450    0.4250 H   0  0  0  0  0
    0.4630    1.0190   -0.6830 H   0  0  0  0  0
   -0.8590    3.1530   -0.5780 H   0  0  0  0  0
   -1.2530    2.7850    1.1180 H   0  0  0  0  0
   -2.4490    0.7590    0.1960 H   0  0  0  0  0
    0.6930    4.1580    0.9340 H   0  0  0  0  0
   -2.7650    0.9010   -2.1670 H   0  0  0  0  0
   -0.6980   -1.0970   -1.4840 H   0  0  0  0  0
   -2.6730   -2.4340   -1.3490 H   0  0  0  0  0
   -1.9170   -1.7980    2.4110 H   0  0  0  0  0
    4.0010   -0.3170   -2.2820 H   0  0  0  0  0
  1  2  1  0  0  0
  1 31  1  0  0  0
  2  3  1  0  0  0
  2 16  1  0  0  0
  2 17  1  0  0  0
  3  4  1  0  0  0
  3 18  1  0  0  0
  3 19  1  0  0  0
  4  5  1  0  0  0
  5  6  1  0  0  0
  5 14  1  0  0  0
  5 20  1  0  0  0
  6  7  1  0  0  0
  7  8  1  0  0  0
  7 10  1  0  0  0
  7 22  1  0  0  0
  8  9  1  0  0  0
  8 23  1  0  0  0
  8 24  1  0  0  0
  9 26  1  0  0  0
 10 11  1  0  0  0
 10 12  1  0  0  0
 10 25  1  0  0  0
 11 27  1  0  0  0
 12 13  1  0  0  0
 12 14  1  0  0  0
 12 28  1  0  0  0
 13 29  1  0  0  0
 14 15  1  0  0  0
 14 21  1  0  0  0
 15 30  1  0  0  0
M  END
$$$$
