8OG
  CCTOOLS-0919241034

 38 40  0  0  1  0  0  0  0  0999 V2000
   -2.3740   -1.0970    5.2760 O   0  0  0  0  0
   -1.1540   -0.1820    4.7600 P   0  0  0  0  0
   -1.6510    1.1770    4.4550 O   0  0  0  0  0
   -0.0260   -0.0960    5.9060 O   0  0  0  0  0
   -0.5200   -0.8320    3.4310 O   0  0  0  0  0
    0.5510    0.0200    3.0250 C   0  0  0  0  0
    1.2000   -0.5430    1.7590 C   0  0  0  0  0
    0.2770   -0.5030    0.6480 O   0  0  0  0  0
    2.3690    0.3620    1.2950 C   0  0  0  0  0
    3.5830    0.0110    1.9600 O   0  0  0  0  0
    2.4510    0.0360   -0.2150 C   0  0  0  0  0
    1.0660   -0.5490   -0.5520 C   0  0  0  0  0
    0.4280    0.2510   -1.5990 N   0  0  0  0  0
    0.1340    1.5620   -1.5140 C   0  0  0  0  0
   -0.4470    1.9670   -2.6600 N   0  0  0  0  0
   -0.5260    0.8640   -3.5140 C   0  0  0  0  0
   -1.0190    0.6700   -4.8120 C   0  0  0  0  0
   -1.5130    1.5950   -5.4370 O   0  0  0  0  0
   -0.9300   -0.5630   -5.3580 N   0  0  0  0  0
   -0.3810   -1.5870   -4.6470 C   0  0  0  0  0
   -0.3060   -2.8320   -5.2180 N   0  0  0  0  0
    0.0820   -1.4110   -3.4290 N   0  0  0  0  0
    0.0280   -0.2130   -2.8350 C   0  0  0  0  0
    0.3570    2.2710   -0.5510 O   0  0  0  0  0
   -2.7250   -0.6730    6.0710 H   0  0  0  0  0
    0.2700   -1.0010    6.0750 H   0  0  0  0  0
    1.2940    0.0740    3.8210 H   0  0  0  0  0
    0.1640    1.0180    2.8200 H   0  0  0  0  0
    1.5490   -1.5620    1.9300 H   0  0  0  0  0
    2.1310    1.4140    1.4530 H   0  0  0  0  0
    4.2850    0.5440    1.5620 H   0  0  0  0  0
    3.2330   -0.6990   -0.4040 H   0  0  0  0  0
    2.6330    0.9420   -0.7920 H   0  0  0  0  0
    1.1720   -1.5810   -0.8870 H   0  0  0  0  0
   -0.7550    2.8650   -2.8580 H   0  0  0  0  0
   -1.2640   -0.7210   -6.2550 H   0  0  0  0  0
    0.0840   -3.5690   -4.7250 H   0  0  0  0  0
   -0.6490   -2.9760   -6.1140 H   0  0  0  0  0
  1  2  1  0  0  0
  1 25  1  0  0  0
  2  3  2  0  0  0
  2  4  1  0  0  0
  2  5  1  0  0  0
  4 26  1  0  0  0
  5  6  1  0  0  0
  6  7  1  0  0  0
  6 27  1  0  0  0
  6 28  1  0  0  0
  7  8  1  0  0  0
  7  9  1  0  0  0
  7 29  1  0  0  0
  8 12  1  0  0  0
  9 10  1  0  0  0
  9 11  1  0  0  0
  9 30  1  0  0  0
 10 31  1  0  0  0
 11 12  1  0  0  0
 11 32  1  0  0  0
 11 33  1  0  0  0
 12 13  1  0  0  0
 12 34  1  0  0  0
 13 14  1  0  0  0
 13 23  1  0  0  0
 14 15  1  0  0  0
 14 24  2  0  0  0
 15 16  1  0  0  0
 15 35  1  0  0  0
 16 17  1  0  0  0
 16 23  2  0  0  0
 17 18  2  0  0  0
 17 19  1  0  0  0
 19 20  1  0  0  0
 19 36  1  0  0  0
 20 21  1  0  0  0
 20 22  2  0  0  0
 21 37  1  0  0  0
 21 38  1  0  0  0
 22 23  1  0  0  0
M  END
$$$$
