941
  CCTOOLS-0919241036

 79 80  0  0  1  0  0  0  0  0999 V2000
   -5.8810   -0.1630    0.1460 C   0  0  0  0  0
   -5.9540   -1.4580    0.6370 C   0  0  0  0  0
   -4.7940   -2.2010    0.8040 C   0  0  0  0  0
   -3.5700   -1.6500    0.4780 C   0  0  0  0  0
   -3.4990   -0.3570   -0.0060 C   0  0  0  0  0
   -4.6540    0.3850   -0.1740 C   0  0  0  0  0
   -1.5820    0.9490    0.8720 C   0  0  0  0  0
   -2.4350    2.0850    1.2300 N   0  0  0  0  0
   -2.6360    3.0820    0.3450 C   0  0  0  0  0
   -0.1930    1.4430    0.5590 C   0  0  0  0  0
    0.8500    0.5900    0.5990 N   0  0  0  0  0
    2.2000    1.0700    0.2940 C   0  0  0  0  0
    3.1920   -0.0890    0.4100 C   0  0  0  0  0
    5.5930   -0.7480    0.2090 C   0  0  0  0  0
    4.6020    0.4120    0.0930 C   0  0  0  0  0
    6.9100   -0.2790   -0.0880 O   0  0  0  0  0
   -2.1090    3.0390   -0.7490 O   0  0  0  0  0
   -3.4200    4.1260    0.6740 O   0  0  0  0  0
   -7.7840   -2.3650   -0.2800 C   0  0  0  0  0
   -0.0140    2.6070    0.2710 O   0  0  0  0  0
   -2.1620    0.2430   -0.3560 C   0  0  0  0  0
   -7.5090   -3.8180   -0.5710 C   0  0  0  0  0
   -9.2710   -2.1460   -0.1750 C   0  0  0  0  0
  -10.0660   -2.4240   -1.2200 O   0  0  0  0  0
   -9.7480   -1.7210    0.8510 O   0  0  0  0  0
    7.7410   -1.3450    0.0310 C   0  0  0  0  0
    7.2350   -2.5860    0.3830 C   0  0  0  0  0
    8.0790   -3.6730    0.5050 C   0  0  0  0  0
    9.4360   -3.5380    0.2710 C   0  0  0  0  0
    9.9630   -2.3090   -0.0880 C   0  0  0  0  0
    9.1150   -1.1980   -0.2140 C   0  0  0  0  0
    9.6630    0.1130   -0.5950 C   0  0  0  0  0
    9.7380    0.4230   -1.7680 O   0  0  0  0  0
   10.0830    0.9700    0.3560 O   0  0  0  0  0
   10.6240    2.2640   -0.0200 C   0  0  0  0  0
   11.2940   -2.1790   -0.3160 O   0  0  0  0  0
   -6.9250   -4.4960    0.2400 O   0  0  0  0  0
   -7.9140   -4.3580   -1.7310 O   0  0  0  0  0
   -7.1600   -1.9990    0.9520 O   0  0  0  0  0
   -3.6350    5.2010   -0.2790 C   0  0  0  0  0
   -4.2830    4.6370   -1.5450 C   0  0  0  0  0
   -4.5570    6.2530    0.3400 C   0  0  0  0  0
   -2.2940    5.8440   -0.6350 C   0  0  0  0  0
   -6.7820    0.4170    0.0150 H   0  0  0  0  0
   -4.8480   -3.2090    1.1870 H   0  0  0  0  0
   -2.6660   -2.2280    0.6080 H   0  0  0  0  0
   -4.5960    1.3930   -0.5560 H   0  0  0  0  0
   -1.5400    0.2500    1.7070 H   0  0  0  0  0
   -2.8560    2.1200    2.1030 H   0  0  0  0  0
    0.7060   -0.3410    0.8290 H   0  0  0  0  0
    2.4740    1.8550    0.9990 H   0  0  0  0  0
    2.2240    1.4680   -0.7200 H   0  0  0  0  0
    2.9170   -0.8740   -0.2950 H   0  0  0  0  0
    3.1680   -0.4880    1.4250 H   0  0  0  0  0
    5.3190   -1.5320   -0.4960 H   0  0  0  0  0
    5.5690   -1.1460    1.2230 H   0  0  0  0  0
    4.8760    1.1970    0.7980 H   0  0  0  0  0
    4.6260    0.8100   -0.9220 H   0  0  0  0  0
   -7.3830   -1.7510   -1.0870 H   0  0  0  0  0
   -2.2870    0.9640   -1.1640 H   0  0  0  0  0
   -1.4820   -0.5460   -0.6760 H   0  0  0  0  0
  -11.0200   -2.2830   -1.1520 H   0  0  0  0  0
    6.1770   -2.7030    0.5680 H   0  0  0  0  0
    7.6770   -4.6360    0.7840 H   0  0  0  0  0
   10.0860   -4.3950    0.3690 H   0  0  0  0  0
   11.5010    2.1210   -0.6510 H   0  0  0  0  0
    9.8690    2.8280   -0.5680 H   0  0  0  0  0
   10.9080    2.8140    0.8780 H   0  0  0  0  0
   11.7010   -1.9490    0.5300 H   0  0  0  0  0
   -7.7370   -5.2910   -1.9170 H   0  0  0  0  0
   -5.2390    4.1780   -1.2910 H   0  0  0  0  0
   -4.4450    5.4430   -2.2600 H   0  0  0  0  0
   -3.6260    3.8860   -1.9860 H   0  0  0  0  0
   -4.0960    6.6550    1.2420 H   0  0  0  0  0
   -4.7190    7.0600   -0.3750 H   0  0  0  0  0
   -5.5130    5.7950    0.5940 H   0  0  0  0  0
   -1.6370    5.0930   -1.0760 H   0  0  0  0  0
   -2.4560    6.6500   -1.3500 H   0  0  0  0  0
   -1.8320    6.2450    0.2670 H   0  0  0  0  0
  1  2  2  0  0  0
  1  6  1  0  0  0
  1 44  1  0  0  0
  2  3  1  0  0  0
  2 39  1  0  0  0
  3  4  2  0  0  0
  3 45  1  0  0  0
  4  5  1  0  0  0
  4 46  1  0  0  0
  5  6  2  0  0  0
  5 21  1  0  0  0
  6 47  1  0  0  0
  7  8  1  0  0  0
  7 10  1  0  0  0
  7 21  1  0  0  0
  7 48  1  0  0  0
  8  9  1  0  0  0
  8 49  1  0  0  0
  9 17  2  0  0  0
  9 18  1  0  0  0
 10 11  1  0  0  0
 10 20  2  0  0  0
 11 12  1  0  0  0
 11 50  1  0  0  0
 12 13  1  0  0  0
 12 51  1  0  0  0
 12 52  1  0  0  0
 13 15  1  0  0  0
 13 53  1  0  0  0
 13 54  1  0  0  0
 14 15  1  0  0  0
 14 16  1  0  0  0
 14 55  1  0  0  0
 14 56  1  0  0  0
 15 57  1  0  0  0
 15 58  1  0  0  0
 16 26  1  0  0  0
 18 40  1  0  0  0
 19 22  1  0  0  0
 19 23  1  0  0  0
 19 39  1  0  0  0
 19 59  1  0  0  0
 21 60  1  0  0  0
 21 61  1  0  0  0
 22 37  2  0  0  0
 22 38  1  0  0  0
 23 24  1  0  0  0
 23 25  2  0  0  0
 24 62  1  0  0  0
 26 27  2  0  0  0
 26 31  1  0  0  0
 27 28  1  0  0  0
 27 63  1  0  0  0
 28 29  2  0  0  0
 28 64  1  0  0  0
 29 30  1  0  0  0
 29 65  1  0  0  0
 30 31  2  0  0  0
 30 36  1  0  0  0
 31 32  1  0  0  0
 32 33  2  0  0  0
 32 34  1  0  0  0
 34 35  1  0  0  0
 35 66  1  0  0  0
 35 67  1  0  0  0
 35 68  1  0  0  0
 36 69  1  0  0  0
 38 70  1  0  0  0
 40 41  1  0  0  0
 40 42  1  0  0  0
 40 43  1  0  0  0
 41 71  1  0  0  0
 41 72  1  0  0  0
 41 73  1  0  0  0
 42 74  1  0  0  0
 42 75  1  0  0  0
 42 76  1  0  0  0
 43 77  1  0  0  0
 43 78  1  0  0  0
 43 79  1  0  0  0
M  END
$$$$
