965
  CCTOOLS-0919241036

 72 75  0  0  0  0  0  0  0  0999 V2000
   10.7250   -1.0570    1.5840 O   0  0  0  0  0
    9.6360   -0.6080    0.9400 C   0  0  0  0  0
    9.0680    0.3840    1.3330 O   0  0  0  0  0
    9.1210   -1.3410   -0.2720 C   0  0  0  0  0
    7.8990   -0.6380   -0.8030 C   0  0  0  0  0
    8.0330    0.3610   -1.7500 C   0  0  0  0  0
    6.9130    1.0080   -2.2390 C   0  0  0  0  0
    5.6570    0.6590   -1.7820 C   0  0  0  0  0
    5.5200   -0.3430   -0.8320 C   0  0  0  0  0
    4.2850   -0.6890   -0.3810 O   0  0  0  0  0
    3.1720    0.0210   -0.9290 C   0  0  0  0  0
    1.8770   -0.5030   -0.3060 C   0  0  0  0  0
    0.6860    0.2570   -0.8920 C   0  0  0  0  0
   -0.5580   -0.2460   -0.2940 N   0  0  0  0  0
   -0.8050   -1.6400   -0.6860 C   0  0  0  0  0
   -2.0080   -2.1650    0.0550 C   0  0  0  0  0
   -1.8420   -2.8470    1.2460 C   0  0  0  0  0
   -2.9460   -3.3280    1.9260 C   0  0  0  0  0
   -4.2140   -3.1290    1.4150 C   0  0  0  0  0
   -4.3810   -2.4470    0.2240 C   0  0  0  0  0
   -3.2780   -1.9600   -0.4530 C   0  0  0  0  0
   -3.4870   -1.0970   -1.9450 CL  0  0  0  0  0
   -5.7650   -2.2310   -0.3330 C   0  0  0  0  0
   -6.7050   -2.8400    0.5040 F   0  0  0  0  0
   -6.0270   -0.8590   -0.4090 F   0  0  0  0  0
   -5.8450   -2.7930   -1.6120 F   0  0  0  0  0
   -1.6970    0.6100   -0.6500 C   0  0  0  0  0
   -1.4900    2.0060   -0.0580 C   0  0  0  0  0
   -2.6060    2.9140   -0.5080 C   0  0  0  0  0
   -2.3130    4.1350   -1.0850 C   0  0  0  0  0
   -3.3370    4.9680   -1.4980 C   0  0  0  0  0
   -4.6530    4.5780   -1.3350 C   0  0  0  0  0
   -4.9460    3.3550   -0.7600 C   0  0  0  0  0
   -3.9220    2.5210   -0.3510 C   0  0  0  0  0
   -1.4900    1.9190    1.4460 C   0  0  0  0  0
   -2.5430    1.3120    2.1040 C   0  0  0  0  0
   -2.5430    1.2320    3.4840 C   0  0  0  0  0
   -1.4890    1.7590    4.2070 C   0  0  0  0  0
   -0.4360    2.3660    3.5490 C   0  0  0  0  0
   -0.4340    2.4420    2.1690 C   0  0  0  0  0
    6.6440   -0.9950   -0.3470 C   0  0  0  0  0
   11.0170   -0.5540    2.3560 H   0  0  0  0  0
    9.8930   -1.3580   -1.0410 H   0  0  0  0  0
    8.8610   -2.3630    0.0050 H   0  0  0  0  0
    9.0140    0.6350   -2.1080 H   0  0  0  0  0
    7.0210    1.7880   -2.9780 H   0  0  0  0  0
    4.7830    1.1650   -2.1640 H   0  0  0  0  0
    3.2770    1.0840   -0.7110 H   0  0  0  0  0
    3.1420   -0.1280   -2.0080 H   0  0  0  0  0
    1.7730   -1.5660   -0.5230 H   0  0  0  0  0
    1.9070   -0.3540    0.7740 H   0  0  0  0  0
    0.7900    1.3200   -0.6750 H   0  0  0  0  0
    0.6550    0.1080   -1.9720 H   0  0  0  0  0
   -0.9900   -1.6880   -1.7590 H   0  0  0  0  0
    0.0660   -2.2470   -0.4400 H   0  0  0  0  0
   -0.8510   -3.0030    1.6450 H   0  0  0  0  0
   -2.8160   -3.8610    2.8560 H   0  0  0  0  0
   -5.0760   -3.5060    1.9470 H   0  0  0  0  0
   -1.7730    0.6830   -1.7350 H   0  0  0  0  0
   -2.6150    0.1790   -0.2500 H   0  0  0  0  0
   -0.5360    2.4070   -0.3990 H   0  0  0  0  0
   -1.2850    4.4400   -1.2120 H   0  0  0  0  0
   -3.1080    5.9230   -1.9470 H   0  0  0  0  0
   -5.4530    5.2280   -1.6570 H   0  0  0  0  0
   -5.9740    3.0510   -0.6320 H   0  0  0  0  0
   -4.1510    1.5650    0.0950 H   0  0  0  0  0
   -3.3670    0.9000    1.5390 H   0  0  0  0  0
   -3.3670    0.7580    3.9970 H   0  0  0  0  0
   -1.4900    1.6970    5.2850 H   0  0  0  0  0
    0.3880    2.7780    4.1140 H   0  0  0  0  0
    0.3910    2.9120    1.6550 H   0  0  0  0  0
    6.5400   -1.7770    0.3900 H   0  0  0  0  0
  1  2  1  0  0  0
  1 42  1  0  0  0
  2  3  2  0  0  0
  2  4  1  0  0  0
  4  5  1  0  0  0
  4 43  1  0  0  0
  4 44  1  0  0  0
  5  6  2  0  0  0
  5 41  1  0  0  0
  6  7  1  0  0  0
  6 45  1  0  0  0
  7  8  2  0  0  0
  7 46  1  0  0  0
  8  9  1  0  0  0
  8 47  1  0  0  0
  9 10  1  0  0  0
  9 41  2  0  0  0
 10 11  1  0  0  0
 11 12  1  0  0  0
 11 48  1  0  0  0
 11 49  1  0  0  0
 12 13  1  0  0  0
 12 50  1  0  0  0
 12 51  1  0  0  0
 13 14  1  0  0  0
 13 52  1  0  0  0
 13 53  1  0  0  0
 14 15  1  0  0  0
 14 27  1  0  0  0
 15 16  1  0  0  0
 15 54  1  0  0  0
 15 55  1  0  0  0
 16 17  2  0  0  0
 16 21  1  0  0  0
 17 18  1  0  0  0
 17 56  1  0  0  0
 18 19  2  0  0  0
 18 57  1  0  0  0
 19 20  1  0  0  0
 19 58  1  0  0  0
 20 21  2  0  0  0
 20 23  1  0  0  0
 21 22  1  0  0  0
 23 24  1  0  0  0
 23 25  1  0  0  0
 23 26  1  0  0  0
 27 28  1  0  0  0
 27 59  1  0  0  0
 27 60  1  0  0  0
 28 29  1  0  0  0
 28 35  1  0  0  0
 28 61  1  0  0  0
 29 30  2  0  0  0
 29 34  1  0  0  0
 30 31  1  0  0  0
 30 62  1  0  0  0
 31 32  2  0  0  0
 31 63  1  0  0  0
 32 33  1  0  0  0
 32 64  1  0  0  0
 33 34  2  0  0  0
 33 65  1  0  0  0
 34 66  1  0  0  0
 35 36  1  0  0  0
 35 40  2  0  0  0
 36 37  2  0  0  0
 36 67  1  0  0  0
 37 38  1  0  0  0
 37 68  1  0  0  0
 38 39  2  0  0  0
 38 69  1  0  0  0
 39 40  1  0  0  0
 39 70  1  0  0  0
 40 71  1  0  0  0
 41 72  1  0  0  0
M  END
$$$$
