9DG
  CCTOOLS-0919241037

 17 18  0  0  0  0  0  0  0  0999 V2000
    1.6120   -0.0000   -1.7760 C   0  0  0  0  0
    0.6720   -0.0000   -2.7430 C   0  0  0  0  0
   -0.5640    0.0000   -2.1750 N   0  0  0  0  0
   -0.4210    0.0000   -0.8040 C   0  0  0  0  0
   -1.3270    0.0010    0.2730 C   0  0  0  0  0
   -2.5310    0.0010    0.0750 O   0  0  0  0  0
   -0.8330   -0.0040    1.5300 N   0  0  0  0  0
    0.5130    0.0000    1.7430 C   0  0  0  0  0
    0.9850    0.0010    3.0330 N   0  0  0  0  0
    1.3710    0.0000    0.7510 N   0  0  0  0  0
    0.9500   -0.0000   -0.5290 C   0  0  0  0  0
    2.6810   -0.0000   -1.9280 H   0  0  0  0  0
    0.8710    0.0000   -3.8050 H   0  0  0  0  0
   -1.4060    0.0000   -2.6560 H   0  0  0  0  0
   -1.4410   -0.0040    2.2860 H   0  0  0  0  0
    1.9410    0.0000    3.2000 H   0  0  0  0  0
    0.3630    0.0050    3.7770 H   0  0  0  0  0
  1  2  2  0  0  0
  1 11  1  0  0  0
  1 12  1  0  0  0
  2  3  1  0  0  0
  2 13  1  0  0  0
  3  4  1  0  0  0
  3 14  1  0  0  0
  4  5  1  0  0  0
  4 11  2  0  0  0
  5  6  2  0  0  0
  5  7  1  0  0  0
  7  8  1  0  0  0
  7 15  1  0  0  0
  8  9  1  0  0  0
  8 10  2  0  0  0
  9 16  1  0  0  0
  9 17  1  0  0  0
 10 11  1  0  0  0
M  END
$$$$
