9LI
  CCTOOLS-0919241038

 27 28  0  0  0  0  0  0  0  0999 V2000
    2.7010    2.9130   -0.2500 C   0  0  0  0  0
    0.4440   -2.4540   -0.4130 CL  0  0  0  0  0
    1.4830    2.0270   -0.1870 C   0  0  0  0  0
   -4.3630   -0.0930    0.2760 CL  0  0  0  0  0
    1.4970    0.6890   -0.2890 C   0  0  0  0  0
    0.1090    0.2360   -0.1760 C   0  0  0  0  0
   -0.6670    1.3970   -0.0060 C   0  0  0  0  0
    0.1990    2.4680   -0.0120 N   0  0  0  0  0
   -2.0460    1.2840    0.1320 C   0  0  0  0  0
   -2.6410    0.0400    0.1020 C   0  0  0  0  0
   -1.8760   -1.1070   -0.0660 C   0  0  0  0  0
   -0.5080   -1.0170   -0.2050 C   0  0  0  0  0
    2.7120   -0.1820   -0.4850 C   0  0  0  0  0
    3.2750   -0.5850    0.8790 C   0  0  0  0  0
    4.4580   -1.4340    0.6890 N   0  0  0  0  0
    2.8860    3.2030   -1.2840 H   0  0  0  0  0
    2.5330    3.8050    0.3540 H   0  0  0  0  0
    3.5640    2.3710    0.1360 H   0  0  0  0  0
   -2.6510    2.1690    0.2640 H   0  0  0  0  0
   -2.3550   -2.0740   -0.0870 H   0  0  0  0  0
    2.4310   -1.0770   -1.0410 H   0  0  0  0  0
    3.4690    0.3700   -1.0420 H   0  0  0  0  0
    3.5550    0.3100    1.4360 H   0  0  0  0  0
    2.5180   -1.1370    1.4370 H   0  0  0  0  0
    4.8490   -1.7140    1.5760 H   0  0  0  0  0
    4.2390   -2.2390    0.1210 H   0  0  0  0  0
   -0.0630    3.3970    0.0870 H   0  0  0  0  0
  1 16  1  0  0  0
  1 17  1  0  0  0
  1 18  1  0  0  0
  2 12  1  0  0  0
  3  1  1  0  0  0
  4 10  1  0  0  0
  5  3  2  0  0  0
  5 13  1  0  0  0
  6  5  1  0  0  0
  6  7  1  0  0  0
  7  8  1  0  0  0
  8  3  1  0  0  0
  8 27  1  0  0  0
  9  7  2  0  0  0
  9 19  1  0  0  0
 10  9  1  0  0  0
 11 10  2  0  0  0
 11 12  1  0  0  0
 11 20  1  0  0  0
 12  6  2  0  0  0
 13 14  1  0  0  0
 13 21  1  0  0  0
 13 22  1  0  0  0
 14 15  1  0  0  0
 14 23  1  0  0  0
 14 24  1  0  0  0
 15 25  1  0  0  0
 15 26  1  0  0  0
M  END
$$$$
