9OH
  CCTOOLS-0919241039

 54 54  0  0  1  0  0  0  0  0999 V2000
    1.2650    0.1150   -8.9810 C   0  0  0  0  0
    1.4230   -0.4860   -7.6080 C   0  0  0  0  0
    0.3880    0.1250   -6.6620 C   0  0  0  0  0
    0.5480   -0.4850   -5.2680 C   0  0  0  0  0
   -0.4860    0.1260   -4.3210 C   0  0  0  0  0
   -0.3260   -0.4840   -2.9280 C   0  0  0  0  0
   -1.3610    0.1260   -1.9810 C   0  0  0  0  0
   -1.2010   -0.4830   -0.5870 C   0  0  0  0  0
   -2.2360    0.1270    0.3580 C   0  0  0  0  0
   -2.0780   -0.4730    1.7310 C   0  0  0  0  0
   -1.8010    0.2950    2.7550 C   0  0  0  0  0
   -1.6430   -0.3050    4.1280 C   0  0  0  0  0
   -0.2800   -0.1790    4.8110 C   0  0  0  0  0
   -0.2560   -0.0280    6.3330 C   0  0  0  0  0
    1.1930    0.0470    6.8150 C   0  0  0  0  0
    1.2160    0.1980    8.3380 C   0  0  0  0  0
    2.6660    0.2740    8.8200 C   0  0  0  0  0
    2.6900    0.4250   10.3420 C   0  0  0  0  0
    0.4120    0.9470   -9.1820 O   0  0  0  0  0
    2.0720   -0.2730   -9.9810 O   0  0  0  0  0
   -2.0390    1.5410    0.4320 O   0  0  0  0  0
   -0.7520   -1.4150    4.2710 O   0  0  0  0  0
    2.4250   -0.2780   -7.2340 H   0  0  0  0  0
    1.2720   -1.5640   -7.6640 H   0  0  0  0  0
   -0.6140   -0.0820   -7.0360 H   0  0  0  0  0
    0.5380    1.2030   -6.6060 H   0  0  0  0  0
    1.5500   -0.2770   -4.8930 H   0  0  0  0  0
    0.3970   -1.5630   -5.3240 H   0  0  0  0  0
   -1.4890   -0.0810   -4.6960 H   0  0  0  0  0
   -0.3360    1.2040   -4.2650 H   0  0  0  0  0
    0.6750   -0.2760   -2.5530 H   0  0  0  0  0
   -0.4770   -1.5620   -2.9840 H   0  0  0  0  0
   -2.3640   -0.0800   -2.3560 H   0  0  0  0  0
   -1.2110    1.2050   -1.9250 H   0  0  0  0  0
   -0.1990   -0.2750   -0.2130 H   0  0  0  0  0
   -1.3520   -1.5610   -0.6430 H   0  0  0  0  0
   -3.2380   -0.0800   -0.0150 H   0  0  0  0  0
   -2.1940   -1.5380    1.8710 H   0  0  0  0  0
   -1.6860    1.3600    2.6150 H   0  0  0  0  0
   -2.5320   -0.2830    4.7590 H   0  0  0  0  0
    0.5110    0.3410    4.2710 H   0  0  0  0  0
   -0.7470   -0.8870    6.7910 H   0  0  0  0  0
   -0.7820    0.8830    6.6160 H   0  0  0  0  0
    1.6830    0.9060    6.3570 H   0  0  0  0  0
    1.7180   -0.8640    6.5320 H   0  0  0  0  0
    0.7260   -0.6600    8.7960 H   0  0  0  0  0
    0.6910    1.1100    8.6210 H   0  0  0  0  0
    3.1570    1.1330    8.3620 H   0  0  0  0  0
    3.1920   -0.6370    8.5370 H   0  0  0  0  0
    3.7230    0.4790   10.6860 H   0  0  0  0  0
    2.1650    1.3370   10.6250 H   0  0  0  0  0
    2.1990   -0.4330   10.8000 H   0  0  0  0  0
    1.9700    0.1120  -10.8620 H   0  0  0  0  0
   -1.1420    1.6810    0.7670 H   0  0  0  0  0
  1  2  1  0  0  0
  1 19  2  0  0  0
  1 20  1  0  0  0
  2  3  1  0  0  0
  2 23  1  0  0  0
  2 24  1  0  0  0
  3  4  1  0  0  0
  3 25  1  0  0  0
  3 26  1  0  0  0
  4  5  1  0  0  0
  4 27  1  0  0  0
  4 28  1  0  0  0
  5  6  1  0  0  0
  5 29  1  0  0  0
  5 30  1  0  0  0
  6  7  1  0  0  0
  6 31  1  0  0  0
  6 32  1  0  0  0
  7  8  1  0  0  0
  7 33  1  0  0  0
  7 34  1  0  0  0
  8  9  1  0  0  0
  8 35  1  0  0  0
  8 36  1  0  0  0
  9 10  1  0  0  0
  9 21  1  0  0  0
  9 37  1  0  0  0
 10 11  2  0  0  0
 10 38  1  0  0  0
 11 12  1  0  0  0
 11 39  1  0  0  0
 12 13  1  0  0  0
 12 22  1  0  0  0
 12 40  1  0  0  0
 13 14  1  0  0  0
 13 22  1  0  0  0
 13 41  1  0  0  0
 14 15  1  0  0  0
 14 42  1  0  0  0
 14 43  1  0  0  0
 15 16  1  0  0  0
 15 44  1  0  0  0
 15 45  1  0  0  0
 16 17  1  0  0  0
 16 46  1  0  0  0
 16 47  1  0  0  0
 17 18  1  0  0  0
 17 48  1  0  0  0
 17 49  1  0  0  0
 18 50  1  0  0  0
 18 51  1  0  0  0
 18 52  1  0  0  0
 20 53  1  0  0  0
 21 54  1  0  0  0
M  END
$$$$
