9PR
  CCTOOLS-1004241120

 21 21  0  0  1  0  0  0  0  0999 V2000
   -0.9930   -0.2020    0.0230 C   0  0  0  0  0
    1.2880   -1.0850    0.2710 N   0  0  0  0  0
   -1.1840   -1.1000   -0.7700 O   0  0  0  0  0
    0.4030    0.0840    0.5140 C   0  0  0  0  0
    1.0380    1.2290   -0.3050 C   0  0  0  0  0
    2.6580   -0.5120    0.2790 C   0  0  0  0  0
    2.5210    0.8370   -0.4590 C   0  0  0  0  0
   -3.3830    0.2690   -0.0230 C   0  0  0  0  0
   -2.0270    0.5430    0.4590 N   0  0  0  0  0
    1.1800   -1.7760    0.9970 H   0  0  0  0  0
    0.3880    0.3350    1.5740 H   0  0  0  0  0
    0.5620    1.3040   -1.2830 H   0  0  0  0  0
    0.9500    2.1730    0.2340 H   0  0  0  0  0
    2.9980   -0.3530    1.3020 H   0  0  0  0  0
    3.3470   -1.1680   -0.2530 H   0  0  0  0  0
    2.7740    0.7190   -1.5130 H   0  0  0  0  0
    3.1620    1.5880    0.0030 H   0  0  0  0  0
   -4.0810    0.9690    0.4370 H   0  0  0  0  0
   -3.4140    0.3850   -1.1060 H   0  0  0  0  0
   -3.6630   -0.7510    0.2420 H   0  0  0  0  0
   -1.8740    1.2620    1.0930 H   0  0  0  0  0
  1  3  2  0  0  0
  1  4  1  0  0  0
  1  9  1  0  0  0
  2  4  1  0  0  0
  2  6  1  0  0  0
  2 10  1  0  0  0
  4  5  1  0  0  0
  4 11  1  0  0  0
  5  7  1  0  0  0
  5 12  1  0  0  0
  5 13  1  0  0  0
  6  7  1  0  0  0
  6 14  1  0  0  0
  6 15  1  0  0  0
  7 16  1  0  0  0
  7 17  1  0  0  0
  8  9  1  0  0  0
  8 18  1  0  0  0
  8 19  1  0  0  0
  8 20  1  0  0  0
  9 21  1  0  0  0
M  END
$$$$
