A1E
  CCTOOLS-0919241042

 81 85  0  0  1  0  0  0  0  0999 V2000
   10.0630    2.2370    1.2620 C   0  0  0  0  0
    8.6960    2.0860    0.5840 C   0  0  0  0  0
    8.3420    0.6010    0.5480 C   0  0  0  0  0
    9.4780   -0.2040   -0.0260 C   0  0  0  0  0
   10.7390    0.2630   -0.1090 C   0  0  0  0  0
   11.1250    1.6510    0.3350 C   0  0  0  0  0
    9.1840   -1.5040   -0.4840 C   0  0  0  0  0
   10.1730   -2.2800   -1.0050 C   0  0  0  0  0
   11.4810   -1.7690   -1.0630 C   0  0  0  0  0
   11.7300   -0.5260   -0.6200 N   0  0  0  0  0
   12.3850   -2.4500   -1.5180 O   0  0  0  0  0
    7.1450    0.4100   -0.2820 N   0  0  0  0  0
    5.9860    0.6570    0.5860 C   0  0  0  0  0
    4.6990    0.3480   -0.1820 C   0  0  0  0  0
    3.4910    0.6060    0.7220 C   0  0  0  0  0
    2.2040    0.2970   -0.0450 C   0  0  0  0  0
    0.9970    0.5550    0.8580 C   0  0  0  0  0
   -0.2900    0.2460    0.0910 C   0  0  0  0  0
   -1.4970    0.5040    0.9940 C   0  0  0  0  0
   -2.7840    0.1950    0.2270 C   0  0  0  0  0
   -3.9910    0.4530    1.1300 C   0  0  0  0  0
   -5.2780    0.1440    0.3630 C   0  0  0  0  0
   -6.4380    0.3910    1.2300 N   0  0  0  0  0
   -7.5630    0.0440    0.5000 C   0  0  0  0  0
   -7.9960   -1.2990    0.4330 C   0  0  0  0  0
   -9.1550   -1.6010   -0.3200 C   0  0  0  0  0
   -9.8040   -0.6240   -0.9560 N   0  0  0  0  0
   -9.4100    0.6370   -0.9130 C   0  0  0  0  0
   -8.2910    1.0090   -0.1900 C   0  0  0  0  0
   -7.3170   -2.3250    1.1060 C   0  0  0  0  0
   -7.7750   -3.6050    1.0190 C   0  0  0  0  0
   -8.9120   -3.9070    0.2740 C   0  0  0  0  0
   -9.5980   -2.9340   -0.3860 C   0  0  0  0  0
  -10.2340    1.6380   -1.6860 C   0  0  0  0  0
   -9.9460    3.0580   -1.2050 C   0  0  0  0  0
   -8.4280    3.2760   -1.2200 C   0  0  0  0  0
   -7.8110    2.4340   -0.1050 C   0  0  0  0  0
   10.2710    3.2920    1.4390 H   0  0  0  0  0
   10.0650    1.6980    2.2100 H   0  0  0  0  0
    8.7450    2.4770   -0.4330 H   0  0  0  0  0
    7.9420    2.6310    1.1520 H   0  0  0  0  0
    8.1350    0.2570    1.5620 H   0  0  0  0  0
   12.0780    1.6070    0.8630 H   0  0  0  0  0
   11.2300    2.2920   -0.5410 H   0  0  0  0  0
    8.1740   -1.8820   -0.4250 H   0  0  0  0  0
    9.9570   -3.2770   -1.3600 H   0  0  0  0  0
   12.6360   -0.1810   -0.6640 H   0  0  0  0  0
    7.1510    1.1440   -0.9730 H   0  0  0  0  0
    6.0470    0.0160    1.4660 H   0  0  0  0  0
    5.9810    1.7020    0.8970 H   0  0  0  0  0
    4.6380    0.9890   -1.0610 H   0  0  0  0  0
    4.7030   -0.6960   -0.4930 H   0  0  0  0  0
    3.5520   -0.0350    1.6020 H   0  0  0  0  0
    3.4870    1.6510    1.0340 H   0  0  0  0  0
    2.1430    0.9380   -0.9250 H   0  0  0  0  0
    2.2090   -0.7470   -0.3570 H   0  0  0  0  0
    1.0580   -0.0860    1.7380 H   0  0  0  0  0
    0.9930    1.6000    1.1700 H   0  0  0  0  0
   -0.3510    0.8870   -0.7890 H   0  0  0  0  0
   -0.2850   -0.7980   -0.2210 H   0  0  0  0  0
   -1.4360   -0.1370    1.8740 H   0  0  0  0  0
   -1.5020    1.5480    1.3060 H   0  0  0  0  0
   -2.8450    0.8360   -0.6530 H   0  0  0  0  0
   -2.7800   -0.8500   -0.0850 H   0  0  0  0  0
   -3.9300   -0.1880    2.0100 H   0  0  0  0  0
   -3.9960    1.4970    1.4420 H   0  0  0  0  0
   -5.3390    0.7850   -0.5170 H   0  0  0  0  0
   -5.2740   -0.9010    0.0510 H   0  0  0  0  0
   -6.3730   -0.2650    1.9940 H   0  0  0  0  0
   -6.4340   -2.1020    1.6860 H   0  0  0  0  0
   -7.2490   -4.3960    1.5340 H   0  0  0  0  0
   -9.2560   -4.9290    0.2200 H   0  0  0  0  0
  -10.4780   -3.1850   -0.9590 H   0  0  0  0  0
  -11.2920    1.4180   -1.5430 H   0  0  0  0  0
   -9.9920    1.5610   -2.7460 H   0  0  0  0  0
  -10.3240    3.1850   -0.1910 H   0  0  0  0  0
  -10.4260    3.7750   -1.8710 H   0  0  0  0  0
   -8.2070    4.3300   -1.0510 H   0  0  0  0  0
   -8.0220    2.9650   -2.1830 H   0  0  0  0  0
   -8.0960    2.8520    0.8600 H   0  0  0  0  0
   -6.7250    2.4540   -0.1990 H   0  0  0  0  0
  1  2  1  0  0  0
  1  6  1  0  0  0
  1 38  1  0  0  0
  1 39  1  0  0  0
  2  3  1  0  0  0
  2 40  1  0  0  0
  2 41  1  0  0  0
  3  4  1  0  0  0
  3 12  1  0  0  0
  3 42  1  0  0  0
  4  5  2  0  0  0
  4  7  1  0  0  0
  5  6  1  0  0  0
  5 10  1  0  0  0
  6 43  1  0  0  0
  6 44  1  0  0  0
  7  8  2  0  0  0
  7 45  1  0  0  0
  8  9  1  0  0  0
  8 46  1  0  0  0
  9 10  1  0  0  0
  9 11  2  0  0  0
 10 47  1  0  0  0
 12 13  1  0  0  0
 12 48  1  0  0  0
 13 14  1  0  0  0
 13 49  1  0  0  0
 13 50  1  0  0  0
 14 15  1  0  0  0
 14 51  1  0  0  0
 14 52  1  0  0  0
 15 16  1  0  0  0
 15 53  1  0  0  0
 15 54  1  0  0  0
 16 17  1  0  0  0
 16 55  1  0  0  0
 16 56  1  0  0  0
 17 18  1  0  0  0
 17 57  1  0  0  0
 17 58  1  0  0  0
 18 19  1  0  0  0
 18 59  1  0  0  0
 18 60  1  0  0  0
 19 20  1  0  0  0
 19 61  1  0  0  0
 19 62  1  0  0  0
 20 21  1  0  0  0
 20 63  1  0  0  0
 20 64  1  0  0  0
 21 22  1  0  0  0
 21 65  1  0  0  0
 21 66  1  0  0  0
 22 23  1  0  0  0
 22 67  1  0  0  0
 22 68  1  0  0  0
 23 24  1  0  0  0
 23 69  1  0  0  0
 24 25  1  0  0  0
 24 29  2  0  0  0
 25 26  2  0  0  0
 25 30  1  0  0  0
 26 27  1  0  0  0
 26 33  1  0  0  0
 27 28  2  0  0  0
 28 29  1  0  0  0
 28 34  1  0  0  0
 29 37  1  0  0  0
 30 31  2  0  0  0
 30 70  1  0  0  0
 31 32  1  0  0  0
 31 71  1  0  0  0
 32 33  2  0  0  0
 32 72  1  0  0  0
 33 73  1  0  0  0
 34 35  1  0  0  0
 34 74  1  0  0  0
 34 75  1  0  0  0
 35 36  1  0  0  0
 35 76  1  0  0  0
 35 77  1  0  0  0
 36 37  1  0  0  0
 36 78  1  0  0  0
 36 79  1  0  0  0
 37 80  1  0  0  0
 37 81  1  0  0  0
M  END
$$$$
