A23
  CCTOOLS-0919241044

 39 42  0  0  1  0  0  0  0  0999 V2000
   -3.5620    0.1290    0.1530 P   0  0  0  0  0
   -4.6050   -0.9090    0.2960 O   0  0  0  0  0
   -4.1580    1.6180    0.2980 O   0  0  0  0  0
    1.6600   -0.0790   -4.7840 P   0  0  0  0  0
    2.1540    1.2970   -4.5560 O   0  0  0  0  0
    2.8460   -0.9800   -5.3970 O   0  0  0  0  0
    0.4250   -0.0420   -5.8160 O   0  0  0  0  0
    1.1730   -0.7130   -3.3870 O   0  0  0  0  0
    0.1260    0.1260   -2.8950 C   0  0  0  0  0
   -0.3840   -0.4230   -1.5620 C   0  0  0  0  0
    0.6760   -0.4280   -0.5810 O   0  0  0  0  0
   -1.4630    0.5100   -0.9700 C   0  0  0  0  0
   -2.7610   -0.0400   -1.2580 O   0  0  0  0  0
   -1.2000    0.4740    0.5510 C   0  0  0  0  0
   -2.3460   -0.1150    1.2130 O   0  0  0  0  0
    0.0090   -0.4740    0.6990 C   0  0  0  0  0
    0.9040    0.0000    1.7570 N   0  0  0  0  0
    1.9350    0.8800    1.6070 C   0  0  0  0  0
    2.5190    1.0800    2.7530 N   0  0  0  0  0
    1.8980    0.3480    3.7090 C   0  0  0  0  0
    2.0880    0.1610    5.0890 C   0  0  0  0  0
    3.1000    0.8250    5.7610 N   0  0  0  0  0
    1.2700   -0.6640    5.7340 N   0  0  0  0  0
    0.3030   -1.3010    5.1010 C   0  0  0  0  0
    0.0910   -1.1610    3.8090 N   0  0  0  0  0
    0.8580   -0.3570    3.0810 C   0  0  0  0  0
   -4.6170    1.6540    1.1480 H   0  0  0  0  0
    3.1080   -0.5660   -6.2310 H   0  0  0  0  0
    0.1340   -0.9560   -5.9370 H   0  0  0  0  0
   -0.6900    0.1470   -3.6160 H   0  0  0  0  0
    0.5090    1.1360   -2.7490 H   0  0  0  0  0
   -0.7830   -1.4280   -1.6940 H   0  0  0  0  0
   -1.3690    1.5220   -1.3650 H   0  0  0  0  0
   -0.9760    1.4610    0.9570 H   0  0  0  0  0
   -0.3270   -1.4880    0.9150 H   0  0  0  0  0
    2.2240    1.3420    0.6750 H   0  0  0  0  0
    3.2180    0.6900    6.7140 H   0  0  0  0  0
    3.6920    1.4210    5.2780 H   0  0  0  0  0
   -0.3380   -1.9620    5.6640 H   0  0  0  0  0
  1  2  2  0  0  0
  1  3  1  0  0  0
  1 13  1  0  0  0
  1 15  1  0  0  0
  3 27  1  0  0  0
  4  5  2  0  0  0
  4  6  1  0  0  0
  4  7  1  0  0  0
  4  8  1  0  0  0
  6 28  1  0  0  0
  7 29  1  0  0  0
  8  9  1  0  0  0
  9 10  1  0  0  0
  9 30  1  0  0  0
  9 31  1  0  0  0
 10 11  1  0  0  0
 10 12  1  0  0  0
 10 32  1  0  0  0
 11 16  1  0  0  0
 12 13  1  0  0  0
 12 14  1  0  0  0
 12 33  1  0  0  0
 14 15  1  0  0  0
 14 16  1  0  0  0
 14 34  1  0  0  0
 16 17  1  0  0  0
 16 35  1  0  0  0
 17 18  1  0  0  0
 17 26  1  0  0  0
 18 19  2  0  0  0
 18 36  1  0  0  0
 19 20  1  0  0  0
 20 21  1  0  0  0
 20 26  2  0  0  0
 21 22  1  0  0  0
 21 23  2  0  0  0
 22 37  1  0  0  0
 22 38  1  0  0  0
 23 24  1  0  0  0
 24 25  2  0  0  0
 24 39  1  0  0  0
 25 26  1  0  0  0
M  END
$$$$
