A2E
  CCTOOLS-0919241044

 81 85  0  0  1  0  0  0  0  0999 V2000
   12.6460   -1.9530    1.7740 O   0  0  0  0  0
   11.6800   -1.4310    1.2410 C   0  0  0  0  0
   10.4520   -2.1130    1.1820 C   0  0  0  0  0
   11.7870   -0.2050    0.7050 N   0  0  0  0  0
   10.7240    0.4090    0.1060 C   0  0  0  0  0
   10.9480    1.7960   -0.4400 C   0  0  0  0  0
    9.5350   -0.2210    0.0300 C   0  0  0  0  0
    9.3900   -1.5080    0.5840 C   0  0  0  0  0
    8.3280    0.3840   -0.6380 C   0  0  0  0  0
    8.4940    1.8950   -0.7860 C   0  0  0  0  0
    9.8550    2.1660   -1.4400 C   0  0  0  0  0
    7.1350    0.1070    0.1740 N   0  0  0  0  0
    5.9760    0.2430   -0.7180 C   0  0  0  0  0
    4.6880    0.0800    0.0910 C   0  0  0  0  0
    3.4810    0.2220   -0.8380 C   0  0  0  0  0
    2.1930    0.0590   -0.0290 C   0  0  0  0  0
    0.9850    0.2010   -0.9580 C   0  0  0  0  0
   -0.3030    0.0380   -0.1490 C   0  0  0  0  0
   -1.5100    0.1800   -1.0780 C   0  0  0  0  0
   -2.7980    0.0170   -0.2690 C   0  0  0  0  0
   -4.0060    0.1590   -1.1980 C   0  0  0  0  0
   -5.2940   -0.0040   -0.3890 C   0  0  0  0  0
   -6.4530    0.1320   -1.2810 N   0  0  0  0  0
   -7.5820    0.0760   -0.4780 C   0  0  0  0  0
   -8.2830   -1.1160   -0.3170 C   0  0  0  0  0
   -7.7710   -2.3280   -1.0480 C   0  0  0  0  0
   -9.4060   -1.1460    0.4900 C   0  0  0  0  0
  -10.2020   -2.4090    0.7090 C   0  0  0  0  0
   -9.8840   -3.4390   -0.3730 C   0  0  0  0  0
   -8.3620   -3.6040   -0.4520 C   0  0  0  0  0
   -9.8280   -0.0570    1.1100 N   0  0  0  0  0
   -9.2070    1.1180    1.0010 C   0  0  0  0  0
   -9.6790    2.2590    1.6730 C   0  0  0  0  0
   -8.0450    1.2260    0.1990 C   0  0  0  0  0
   -7.3940    2.4610    0.0800 C   0  0  0  0  0
   -7.8800    3.5460    0.7470 C   0  0  0  0  0
   -9.0200    3.4420    1.5410 C   0  0  0  0  0
   10.3520   -3.0990    1.6120 H   0  0  0  0  0
   12.6400    0.2560    0.7440 H   0  0  0  0  0
   10.9400    2.5110    0.3820 H   0  0  0  0  0
   11.9170    1.8330   -0.9380 H   0  0  0  0  0
    8.4390   -2.0160    0.5320 H   0  0  0  0  0
    8.2020   -0.0610   -1.6250 H   0  0  0  0  0
    7.6980    2.2930   -1.4160 H   0  0  0  0  0
    8.4570    2.3670    0.1960 H   0  0  0  0  0
    9.9580    1.5600   -2.3390 H   0  0  0  0  0
    9.9350    3.2230   -1.6970 H   0  0  0  0  0
    7.1850   -0.8650    0.4390 H   0  0  0  0  0
    5.9900    1.2280   -1.1850 H   0  0  0  0  0
    6.0200   -0.5250   -1.4900 H   0  0  0  0  0
    4.6740   -0.9050    0.5570 H   0  0  0  0  0
    4.6440    0.8480    0.8630 H   0  0  0  0  0
    3.4950    1.2070   -1.3050 H   0  0  0  0  0
    3.5240   -0.5460   -1.6100 H   0  0  0  0  0
    2.1780   -0.9260    0.4370 H   0  0  0  0  0
    2.1490    0.8270    0.7430 H   0  0  0  0  0
    0.9990    1.1860   -1.4250 H   0  0  0  0  0
    1.0290   -0.5680   -1.7300 H   0  0  0  0  0
   -0.3170   -0.9470    0.3170 H   0  0  0  0  0
   -0.3470    0.8060    0.6230 H   0  0  0  0  0
   -1.4960    1.1650   -1.5450 H   0  0  0  0  0
   -1.4670   -0.5890   -1.8500 H   0  0  0  0  0
   -2.8130   -0.9680    0.1980 H   0  0  0  0  0
   -2.8420    0.7850    0.5030 H   0  0  0  0  0
   -3.9920    1.1440   -1.6650 H   0  0  0  0  0
   -3.9620   -0.6100   -1.9700 H   0  0  0  0  0
   -5.3080   -0.9890    0.0780 H   0  0  0  0  0
   -5.3380    0.7640    0.3830 H   0  0  0  0  0
   -6.4160    1.0640   -1.6650 H   0  0  0  0  0
   -8.0520   -2.2590   -2.0990 H   0  0  0  0  0
   -6.6850   -2.3640   -0.9690 H   0  0  0  0  0
  -11.2660   -2.1730    0.6780 H   0  0  0  0  0
   -9.9550   -2.8260    1.6850 H   0  0  0  0  0
  -10.2660   -3.0920   -1.3330 H   0  0  0  0  0
  -10.3440   -4.3940   -0.1160 H   0  0  0  0  0
   -8.1170   -4.4550   -1.0880 H   0  0  0  0  0
   -7.9570   -3.7640    0.5480 H   0  0  0  0  0
  -10.5620    2.1960    2.2920 H   0  0  0  0  0
   -6.5090    2.5520   -0.5320 H   0  0  0  0  0
   -7.3760    4.4970    0.6580 H   0  0  0  0  0
   -9.3870    4.3160    2.0600 H   0  0  0  0  0
  1  2  2  0  0  0
  2  3  1  0  0  0
  2  4  1  0  0  0
  3  8  2  0  0  0
  3 38  1  0  0  0
  4  5  1  0  0  0
  4 39  1  0  0  0
  5  6  1  0  0  0
  5  7  2  0  0  0
  6 11  1  0  0  0
  6 40  1  0  0  0
  6 41  1  0  0  0
  7  8  1  0  0  0
  7  9  1  0  0  0
  8 42  1  0  0  0
  9 10  1  0  0  0
  9 12  1  0  0  0
  9 43  1  0  0  0
 10 11  1  0  0  0
 10 44  1  0  0  0
 10 45  1  0  0  0
 11 46  1  0  0  0
 11 47  1  0  0  0
 12 13  1  0  0  0
 12 48  1  0  0  0
 13 14  1  0  0  0
 13 49  1  0  0  0
 13 50  1  0  0  0
 14 15  1  0  0  0
 14 51  1  0  0  0
 14 52  1  0  0  0
 15 16  1  0  0  0
 15 53  1  0  0  0
 15 54  1  0  0  0
 16 17  1  0  0  0
 16 55  1  0  0  0
 16 56  1  0  0  0
 17 18  1  0  0  0
 17 57  1  0  0  0
 17 58  1  0  0  0
 18 19  1  0  0  0
 18 59  1  0  0  0
 18 60  1  0  0  0
 19 20  1  0  0  0
 19 61  1  0  0  0
 19 62  1  0  0  0
 20 21  1  0  0  0
 20 63  1  0  0  0
 20 64  1  0  0  0
 21 22  1  0  0  0
 21 65  1  0  0  0
 21 66  1  0  0  0
 22 23  1  0  0  0
 22 67  1  0  0  0
 22 68  1  0  0  0
 23 24  1  0  0  0
 23 69  1  0  0  0
 24 25  2  0  0  0
 24 34  1  0  0  0
 25 26  1  0  0  0
 25 27  1  0  0  0
 26 30  1  0  0  0
 26 70  1  0  0  0
 26 71  1  0  0  0
 27 28  1  0  0  0
 27 31  2  0  0  0
 28 29  1  0  0  0
 28 72  1  0  0  0
 28 73  1  0  0  0
 29 30  1  0  0  0
 29 74  1  0  0  0
 29 75  1  0  0  0
 30 76  1  0  0  0
 30 77  1  0  0  0
 31 32  1  0  0  0
 32 33  1  0  0  0
 32 34  2  0  0  0
 33 37  2  0  0  0
 33 78  1  0  0  0
 34 35  1  0  0  0
 35 36  2  0  0  0
 35 79  1  0  0  0
 36 37  1  0  0  0
 36 80  1  0  0  0
 37 81  1  0  0  0
M  END
$$$$
