A2G
  CCTOOLS-1004241124

 30 30  0  0  1  0  0  0  0  0999 V2000
   -1.2520   -1.0380   -0.4700 O   0  0  0  0  0
    0.0920   -1.1750   -0.0050 C   0  0  0  0  0
    0.0840   -1.6320    1.3490 O   0  0  0  0  0
    0.7980    0.1810   -0.0820 C   0  0  0  0  0
    2.1580    0.0550    0.4490 N   0  0  0  0  0
    0.0160    1.2030    0.7490 C   0  0  0  0  0
    0.6270    2.4890    0.6240 O   0  0  0  0  0
   -1.4250    1.2680    0.2340 C   0  0  0  0  0
   -1.4280    1.7300   -1.1180 O   0  0  0  0  0
   -2.0450   -0.1300    0.2980 C   0  0  0  0  0
   -3.4650   -0.0850   -0.2710 C   0  0  0  0  0
   -4.0850   -1.3620   -0.1050 O   0  0  0  0  0
    3.1580   -0.3650   -0.3510 C   0  0  0  0  0
    2.9320   -0.6390   -1.5110 O   0  0  0  0  0
    4.5560   -0.4940    0.1950 C   0  0  0  0  0
    0.6200   -1.8960   -0.6290 H   0  0  0  0  0
   -0.3500   -2.4880    1.4720 H   0  0  0  0  0
    0.8410    0.5110   -1.1200 H   0  0  0  0  0
    2.3380    0.2750    1.3770 H   0  0  0  0  0
    0.0160    0.8980    1.7960 H   0  0  0  0  0
    0.1830    3.1860    1.1250 H   0  0  0  0  0
   -2.0030    1.9530    0.8540 H   0  0  0  0  0
   -2.3100    1.7960   -1.5100 H   0  0  0  0  0
   -2.0790   -0.4650    1.3350 H   0  0  0  0  0
   -4.0440    0.6710    0.2580 H   0  0  0  0  0
    4.5640   -0.2060    1.2470 H   0  0  0  0  0
    4.8900   -1.5270    0.0990 H   0  0  0  0  0
    5.2270    0.1580   -0.3650 H   0  0  0  0  0
   -3.4240    0.1640   -1.3310 H   0  0  0  0  0
   -4.9890   -1.4070   -0.4440 H   0  0  0  0  0
  1 10  1  0  0  0
  2  1  1  0  0  0
  2  4  1  0  0  0
  2 16  1  0  0  0
  3  2  1  0  0  0
  3 17  1  0  0  0
  4  6  1  0  0  0
  4 18  1  0  0  0
  5  4  1  0  0  0
  5 19  1  0  0  0
  6  8  1  0  0  0
  6  7  1  0  0  0
  6 20  1  0  0  0
  7 21  1  0  0  0
  8  9  1  0  0  0
  8 22  1  0  0  0
  9 23  1  0  0  0
 10  8  1  0  0  0
 10 11  1  0  0  0
 10 24  1  0  0  0
 11 12  1  0  0  0
 11 25  1  0  0  0
 11 29  1  0  0  0
 12 30  1  0  0  0
 13  5  1  0  0  0
 14 13  2  0  0  0
 15 13  1  0  0  0
 15 26  1  0  0  0
 15 27  1  0  0  0
 15 28  1  0  0  0
M  END
$$$$
