A37
  CCTOOLS-0919241044

 29 31  0  0  0  0  0  0  0  0999 V2000
    2.9950   -1.0870    1.8450 C   0  0  0  0  0
    2.6360   -2.3500    1.4130 C   0  0  0  0  0
    2.0650   -2.5160    0.1630 C   0  0  0  0  0
    1.8550   -1.4200   -0.6530 C   0  0  0  0  0
    2.2150   -0.1570   -0.2210 C   0  0  0  0  0
    2.7910    0.0090    1.0260 C   0  0  0  0  0
    1.9470    1.2400   -1.2600 S   0  0  0  0  0
    3.1710    1.9600   -1.2620 O   0  0  0  0  0
    1.2840    0.7410   -2.4140 O   0  0  0  0  0
    0.8490    2.2200   -0.5000 N   0  0  0  0  0
   -0.4280    1.7660   -0.2600 C   0  0  0  0  0
   -0.9080    0.6220   -0.6760 N   0  0  0  0  0
   -2.1970    0.5100   -0.2540 C   0  0  0  0  0
   -3.1750   -0.4750   -0.3950 C   0  0  0  0  0
   -4.4220   -0.2850    0.1620 C   0  0  0  0  0
   -5.6430   -1.5070   -0.0180 CL  0  0  0  0  0
   -4.7050    0.8730    0.8700 C   0  0  0  0  0
   -3.7440    1.8530    1.0210 C   0  0  0  0  0
   -2.4880    1.6800    0.4630 C   0  0  0  0  0
   -1.3640    2.4340    0.4360 O   0  0  0  0  0
    1.6140   -4.1020   -0.3800 CL  0  0  0  0  0
    3.2420    1.5950    1.5690 CL  0  0  0  0  0
    3.4410   -0.9570    2.8210 H   0  0  0  0  0
    2.8010   -3.2060    2.0500 H   0  0  0  0  0
    1.4090   -1.5500   -1.6280 H   0  0  0  0  0
    1.1070    3.1130   -0.2240 H   0  0  0  0  0
   -2.9570   -1.3810   -0.9410 H   0  0  0  0  0
   -5.6840    1.0110    1.3050 H   0  0  0  0  0
   -3.9710    2.7530    1.5730 H   0  0  0  0  0
  1  2  1  0  0  0
  1  6  2  0  0  0
  1 23  1  0  0  0
  2  3  2  0  0  0
  2 24  1  0  0  0
  3  4  1  0  0  0
  3 21  1  0  0  0
  4  5  2  0  0  0
  4 25  1  0  0  0
  5  6  1  0  0  0
  5  7  1  0  0  0
  6 22  1  0  0  0
  7  8  2  0  0  0
  7  9  2  0  0  0
  7 10  1  0  0  0
 10 11  1  0  0  0
 10 26  1  0  0  0
 11 12  2  0  0  0
 11 20  1  0  0  0
 12 13  1  0  0  0
 13 14  2  0  0  0
 13 19  1  0  0  0
 14 15  1  0  0  0
 14 27  1  0  0  0
 15 16  1  0  0  0
 15 17  2  0  0  0
 17 18  1  0  0  0
 17 28  1  0  0  0
 18 19  2  0  0  0
 18 29  1  0  0  0
 19 20  1  0  0  0
M  END
$$$$
