A3P
  CCTOOLS-1004241125

 42 44  0  0  1  0  0  0  0  0999 V2000
    3.0470   -0.3190   -2.4190 P   0  0  0  0  0
    2.0800   -0.6810   -3.4790 O   0  0  0  0  0
    4.3140    0.4220   -3.0800 O   0  0  0  0  0
    3.5400   -1.6530   -1.6640 O   0  0  0  0  0
   -2.7280    0.0730   -3.8070 P   0  0  0  0  0
   -2.9320   -1.3690   -3.5490 O   0  0  0  0  0
   -4.1490    0.7730   -4.0960 O   0  0  0  0  0
   -1.7680    0.2590   -5.0860 O   0  0  0  0  0
   -2.0450    0.7580   -2.5200 O   0  0  0  0  0
   -0.7940    0.0970   -2.3160 C   0  0  0  0  0
   -0.0900    0.7030   -1.1000 C   0  0  0  0  0
   -0.8880    0.5160    0.0880 O   0  0  0  0  0
    1.2290   -0.0450   -0.8120 C   0  0  0  0  0
    2.3400    0.6660   -1.3610 O   0  0  0  0  0
    1.3140   -0.0770    0.7320 C   0  0  0  0  0
    2.4810    0.6120    1.1830 O   0  0  0  0  0
    0.0330    0.6540    1.1910 C   0  0  0  0  0
   -0.5120    0.0210    2.3940 N   0  0  0  0  0
   -1.3960   -1.0150    2.4290 C   0  0  0  0  0
   -1.6670   -1.3260    3.6630 N   0  0  0  0  0
   -0.9720   -0.5150    4.4960 C   0  0  0  0  0
   -0.8730   -0.3820    5.8910 C   0  0  0  0  0
   -1.5880   -1.2150    6.7340 N   0  0  0  0  0
   -0.0720    0.5580    6.3830 N   0  0  0  0  0
    0.6120    1.3570    5.5860 C   0  0  0  0  0
    0.5470    1.2730    4.2740 N   0  0  0  0  0
   -0.2260    0.3620    3.6910 C   0  0  0  0  0
    4.7080   -0.2000   -3.7050 H   0  0  0  0  0
    4.1670   -1.3730   -0.9830 H   0  0  0  0  0
   -4.5230    0.3350   -4.8730 H   0  0  0  0  0
   -1.6610    1.2110   -5.2200 H   0  0  0  0  0
   -0.1680    0.2230   -3.1990 H   0  0  0  0  0
   -0.9680   -0.9640   -2.1430 H   0  0  0  0  0
    0.1030    1.7630   -1.2650 H   0  0  0  0  0
    1.1890   -1.0580   -1.2140 H   0  0  0  0  0
    1.3150   -1.1050    1.0930 H   0  0  0  0  0
    2.4810    0.5600    2.1490 H   0  0  0  0  0
    0.2440    1.7070    1.3790 H   0  0  0  0  0
   -1.8110   -1.5050    1.5610 H   0  0  0  0  0
   -1.5080   -1.1160    7.6960 H   0  0  0  0  0
   -2.1710   -1.8950    6.3640 H   0  0  0  0  0
    1.2510    2.1080    6.0270 H   0  0  0  0  0
  1  2  2  0  0  0
  1  3  1  0  0  0
  1  4  1  0  0  0
  1 14  1  0  0  0
  3 28  1  0  0  0
  4 29  1  0  0  0
  5  6  2  0  0  0
  5  7  1  0  0  0
  5  8  1  0  0  0
  5  9  1  0  0  0
  7 30  1  0  0  0
  8 31  1  0  0  0
  9 10  1  0  0  0
 10 11  1  0  0  0
 10 32  1  0  0  0
 10 33  1  0  0  0
 11 12  1  0  0  0
 11 13  1  0  0  0
 11 34  1  0  0  0
 12 17  1  0  0  0
 13 14  1  0  0  0
 13 15  1  0  0  0
 13 35  1  0  0  0
 15 16  1  0  0  0
 15 17  1  0  0  0
 15 36  1  0  0  0
 16 37  1  0  0  0
 17 18  1  0  0  0
 17 38  1  0  0  0
 18 19  1  0  0  0
 18 27  1  0  0  0
 19 20  2  0  0  0
 19 39  1  0  0  0
 20 21  1  0  0  0
 21 22  1  0  0  0
 21 27  2  0  0  0
 22 23  1  0  0  0
 22 24  2  0  0  0
 23 40  1  0  0  0
 23 41  1  0  0  0
 24 25  1  0  0  0
 25 26  2  0  0  0
 25 42  1  0  0  0
 26 27  1  0  0  0
M  END
$$$$
