A48
  CCTOOLS-0919241044

 61 63  0  0  0  0  0  0  0  0999 V2000
    1.5270   -1.1470    2.4690 C   0  0  0  0  0
    1.3220   -2.1260    1.3420 C   0  0  0  0  0
    1.9830   -3.3370    1.3500 C   0  0  0  0  0
    1.7960   -4.2370    0.3150 C   0  0  0  0  0
    2.5210   -5.5580    0.3290 C   0  0  0  0  0
    0.9450   -3.9280   -0.7310 C   0  0  0  0  0
    0.2790   -2.7200   -0.7480 C   0  0  0  0  0
   -0.6460   -2.3840   -1.8890 C   0  0  0  0  0
    0.4600   -1.8130    0.2930 C   0  0  0  0  0
   -0.2990   -0.4390    0.2820 B   0  0  0  0  0
    0.4250    0.8280    0.6710 N   0  0  0  0  0
   -0.1410    1.7110    1.6930 C   0  0  0  0  0
   -0.7760    2.9300    1.0200 C   0  0  0  0  0
   -1.8770    2.5220    0.2600 F   0  0  0  0  0
   -1.1950    3.8380    1.9980 F   0  0  0  0  0
    0.1650    3.5440    0.1860 F   0  0  0  0  0
    1.6380    1.1580    0.0550 C   0  0  0  0  0
    2.3900    2.2240    0.5300 C   0  0  0  0  0
    3.5870    2.5490   -0.0780 C   0  0  0  0  0
    4.0370    1.8100   -1.1630 C   0  0  0  0  0
    5.2150    2.1310   -1.7610 O   0  0  0  0  0
    3.2860    0.7450   -1.6370 C   0  0  0  0  0
    2.0920    0.4150   -1.0270 C   0  0  0  0  0
   -1.8120   -0.3820   -0.1340 C   0  0  0  0  0
   -2.2120    0.4110   -1.2070 C   0  0  0  0  0
   -1.1930    1.2150   -1.9730 C   0  0  0  0  0
   -3.5430    0.4580   -1.5690 C   0  0  0  0  0
   -4.4790   -0.2800   -0.8670 C   0  0  0  0  0
   -5.9320   -0.2250   -1.2660 C   0  0  0  0  0
   -4.0870   -1.0690    0.2000 C   0  0  0  0  0
   -2.7580   -1.1280    0.5660 C   0  0  0  0  0
   -2.3310   -1.9920    1.7240 C   0  0  0  0  0
    0.7350   -1.2730    3.2080 H   0  0  0  0  0
    2.4940   -1.3290    2.9370 H   0  0  0  0  0
    1.4990   -0.1310    2.0760 H   0  0  0  0  0
    2.6480   -3.5830    2.1640 H   0  0  0  0  0
    1.9120   -6.3020    0.8440 H   0  0  0  0  0
    2.7030   -5.8840   -0.6950 H   0  0  0  0  0
    3.4720   -5.4460    0.8490 H   0  0  0  0  0
    0.8030   -4.6340   -1.5360 H   0  0  0  0  0
   -1.6700   -2.6360   -1.6120 H   0  0  0  0  0
   -0.5810   -1.3190   -2.1090 H   0  0  0  0  0
   -0.3580   -2.9560   -2.7710 H   0  0  0  0  0
   -0.9010    1.1720    2.2590 H   0  0  0  0  0
    0.6490    2.0390    2.3680 H   0  0  0  0  0
    2.0400    2.7990    1.3740 H   0  0  0  0  0
    4.1720    3.3780    0.2900 H   0  0  0  0  0
    5.9830    1.6780   -1.3850 H   0  0  0  0  0
    3.6370    0.1710   -2.4820 H   0  0  0  0  0
    1.5090   -0.4170   -1.3940 H   0  0  0  0  0
   -0.8470    0.6400   -2.8310 H   0  0  0  0  0
   -1.6480    2.1440   -2.3170 H   0  0  0  0  0
   -0.3480    1.4430   -1.3230 H   0  0  0  0  0
   -3.8540    1.0720   -2.4010 H   0  0  0  0  0
   -6.1360   -1.0040   -2.0010 H   0  0  0  0  0
   -6.5560   -0.3820   -0.3860 H   0  0  0  0  0
   -6.1530    0.7500   -1.6990 H   0  0  0  0  0
   -4.8220   -1.6440    0.7440 H   0  0  0  0  0
   -2.4480   -1.4370    2.6540 H   0  0  0  0  0
   -2.9490   -2.8890    1.7550 H   0  0  0  0  0
   -1.2860   -2.2760    1.5990 H   0  0  0  0  0
  1  2  1  0  0  0
  1 33  1  0  0  0
  1 34  1  0  0  0
  1 35  1  0  0  0
  2  9  1  0  0  0
  2  3  2  0  0  0
  3  4  1  0  0  0
  3 36  1  0  0  0
  4  6  2  0  0  0
  4  5  1  0  0  0
  5 37  1  0  0  0
  5 38  1  0  0  0
  5 39  1  0  0  0
  6  7  1  0  0  0
  6 40  1  0  0  0
  7  8  1  0  0  0
  7  9  2  0  0  0
  8 41  1  0  0  0
  8 42  1  0  0  0
  8 43  1  0  0  0
  9 10  1  0  0  0
 10 24  1  0  0  0
 10 11  1  0  0  0
 11 17  1  0  0  0
 11 12  1  0  0  0
 12 13  1  0  0  0
 12 44  1  0  0  0
 12 45  1  0  0  0
 13 14  1  0  0  0
 13 16  1  0  0  0
 13 15  1  0  0  0
 17 18  2  0  0  0
 17 23  1  0  0  0
 18 19  1  0  0  0
 18 46  1  0  0  0
 19 20  2  0  0  0
 19 47  1  0  0  0
 20 21  1  0  0  0
 20 22  1  0  0  0
 21 48  1  0  0  0
 22 23  2  0  0  0
 22 49  1  0  0  0
 23 50  1  0  0  0
 24 25  2  0  0  0
 24 31  1  0  0  0
 25 27  1  0  0  0
 25 26  1  0  0  0
 26 51  1  0  0  0
 26 52  1  0  0  0
 26 53  1  0  0  0
 27 28  2  0  0  0
 27 54  1  0  0  0
 28 29  1  0  0  0
 28 30  1  0  0  0
 29 55  1  0  0  0
 29 56  1  0  0  0
 29 57  1  0  0  0
 30 31  2  0  0  0
 30 58  1  0  0  0
 31 32  1  0  0  0
 32 59  1  0  0  0
 32 60  1  0  0  0
 32 61  1  0  0  0
M  END
$$$$
