A74
  CCTOOLS-0919241044

 46 49  0  0  0  0  0  0  0  0999 V2000
    3.8210   -1.3790   -2.1560 C   0  0  0  0  0
    4.4300   -0.1430   -2.2580 C   0  0  0  0  0
    4.4820    0.6960   -1.1580 C   0  0  0  0  0
    3.9240    0.2970    0.0430 C   0  0  0  0  0
    3.3150   -0.9390    0.1450 C   0  0  0  0  0
    3.2680   -1.7800   -0.9520 C   0  0  0  0  0
    2.6040   -1.4470    1.6750 S   0  0  0  0  0
    3.0930   -2.7610    1.9110 O   0  0  0  0  0
    2.7550   -0.3430    2.5570 O   0  0  0  0  0
    0.9740   -1.6110    1.4340 N   0  0  0  0  0
    0.2150   -0.5140    1.0930 C   0  0  0  0  0
    0.6600    0.7160    1.0310 N   0  0  0  0  0
   -0.3660    1.5320    0.6630 C   0  0  0  0  0
   -0.4700    2.9070    0.4440 C   0  0  0  0  0
   -1.6820    3.4570    0.0670 C   0  0  0  0  0
   -2.8010    2.6500   -0.0900 C   0  0  0  0  0
   -2.7110    1.2770    0.1190 C   0  0  0  0  0
   -1.4920    0.7140    0.4990 C   0  0  0  0  0
   -1.0900   -0.5490    0.7750 O   0  0  0  0  0
    5.2490    2.2480   -1.2860 CL  0  0  0  0  0
    2.5020   -3.3330   -0.8240 CL  0  0  0  0  0
   -1.7800    4.7960   -0.1450 O   0  0  0  0  0
   -0.4840    5.3490    0.0980 C   0  0  0  0  0
   -6.2040   -0.0790    0.3650 C   0  0  0  0  0
   -6.0590   -1.2130   -0.4260 C   0  0  0  0  0
   -4.8990   -1.5020   -0.9930 N   0  0  0  0  0
   -3.8400   -0.7330   -0.8380 C   0  0  0  0  0
   -3.9060    0.4170   -0.0560 C   0  0  0  0  0
   -5.1180    0.7530    0.5570 C   0  0  0  0  0
   -7.1220   -2.0340   -0.6190 O   0  0  0  0  0
   -6.6740   -3.0980   -1.4620 C   0  0  0  0  0
    3.7800   -2.0330   -3.0140 H   0  0  0  0  0
    4.8660    0.1690   -3.1950 H   0  0  0  0  0
    3.9650    0.9520    0.9010 H   0  0  0  0  0
    0.5540   -2.4790    1.5330 H   0  0  0  0  0
    0.3960    3.5410    0.5690 H   0  0  0  0  0
   -3.7430    3.0890   -0.3840 H   0  0  0  0  0
   -0.5130    6.4270   -0.0600 H   0  0  0  0  0
   -0.1870    5.1400    1.1260 H   0  0  0  0  0
    0.2360    4.9000   -0.5860 H   0  0  0  0  0
   -7.1550    0.1490    0.8230 H   0  0  0  0  0
   -2.9100   -1.0010   -1.3170 H   0  0  0  0  0
   -5.2020    1.6410    1.1670 H   0  0  0  0  0
   -6.3240   -2.6880   -2.4100 H   0  0  0  0  0
   -5.8580   -3.6290   -0.9730 H   0  0  0  0  0
   -7.4980   -3.7870   -1.6460 H   0  0  0  0  0
  1  2  1  0  0  0
  1  6  2  0  0  0
  1 32  1  0  0  0
  2  3  2  0  0  0
  2 33  1  0  0  0
  3  4  1  0  0  0
  3 20  1  0  0  0
  4  5  2  0  0  0
  4 34  1  0  0  0
  5  6  1  0  0  0
  5  7  1  0  0  0
  6 21  1  0  0  0
  7  8  2  0  0  0
  7  9  2  0  0  0
  7 10  1  0  0  0
 10 11  1  0  0  0
 10 35  1  0  0  0
 11 12  2  0  0  0
 11 19  1  0  0  0
 12 13  1  0  0  0
 13 14  1  0  0  0
 13 18  2  0  0  0
 14 15  2  0  0  0
 14 36  1  0  0  0
 15 16  1  0  0  0
 15 22  1  0  0  0
 16 17  2  0  0  0
 16 37  1  0  0  0
 17 18  1  0  0  0
 17 28  1  0  0  0
 18 19  1  0  0  0
 22 23  1  0  0  0
 23 38  1  0  0  0
 23 39  1  0  0  0
 23 40  1  0  0  0
 24 25  1  0  0  0
 24 29  2  0  0  0
 24 41  1  0  0  0
 25 26  2  0  0  0
 25 30  1  0  0  0
 26 27  1  0  0  0
 27 28  2  0  0  0
 27 42  1  0  0  0
 28 29  1  0  0  0
 29 43  1  0  0  0
 30 31  1  0  0  0
 31 44  1  0  0  0
 31 45  1  0  0  0
 31 46  1  0  0  0
M  END
$$$$
