A8B
  CCTOOLS-0919241027

 70 74  0  0  0  0  0  0  0  0999 V2000
    7.7770    1.2890    0.4870 C   0  0  0  0  0
    6.5660    1.2540   -0.2440 C   0  0  0  0  0
    5.9940    2.4500   -0.7010 C   0  0  0  0  0
    6.6100    3.6360   -0.4350 C   0  0  0  0  0
    7.8010    3.6740    0.2860 C   0  0  0  0  0
    8.3820    2.5320    0.7440 C   0  0  0  0  0
    8.3250    0.1510    0.9140 N   0  0  0  0  0
    7.7810   -1.0320    0.6820 C   0  0  0  0  0
    6.5940   -1.1440   -0.0200 C   0  0  0  0  0
    5.9630    0.0010   -0.4950 C   0  0  0  0  0
    4.7750   -0.0850   -1.2050 N   0  0  0  0  0
    5.9310   -2.4680   -0.2940 C   0  0  0  0  0
    6.9220   -3.6150   -0.1060 C   0  0  0  0  0
    7.5930   -3.4520    1.2630 C   0  0  0  0  0
    8.5190   -2.2390    1.2070 C   0  0  0  0  0
   -1.3710    0.0890   -0.0600 C   0  0  0  0  0
   -0.1670   -0.1260   -0.9800 C   0  0  0  0  0
    1.1240    0.1050   -0.1910 C   0  0  0  0  0
   -2.6620   -0.1420   -0.8490 C   0  0  0  0  0
    2.3280   -0.1100   -1.1100 C   0  0  0  0  0
   -6.3100    0.0480    0.1620 N   0  0  0  0  0
    3.6190    0.1210   -0.3220 C   0  0  0  0  0
   -9.1150   -0.6020   -2.1210 C   0  0  0  0  0
   -7.8160   -0.4550   -1.6560 C   0  0  0  0  0
   -3.8660    0.0730    0.0700 C   0  0  0  0  0
   -5.1570   -0.1580   -0.7180 C   0  0  0  0  0
  -10.1550   -0.4210   -1.3410 N   0  0  0  0  0
  -10.0180   -0.0830   -0.0540 C   0  0  0  0  0
   -8.7260    0.0860    0.4980 C   0  0  0  0  0
   -7.5960   -0.1060   -0.3330 C   0  0  0  0  0
   -8.5880    0.4410    1.8470 C   0  0  0  0  0
   -9.7000    0.6190    2.6140 C   0  0  0  0  0
  -10.9730    0.4520    2.0740 C   0  0  0  0  0
  -11.1420    0.1080    0.7680 C   0  0  0  0  0
    5.0710    2.4310   -1.2610 H   0  0  0  0  0
    6.1700    4.5560   -0.7880 H   0  0  0  0  0
    8.2710    4.6260    0.4850 H   0  0  0  0  0
    9.3060    2.5790    1.3020 H   0  0  0  0  0
    4.7640    0.5680   -1.9730 H   0  0  0  0  0
    5.0950   -2.6000    0.3940 H   0  0  0  0  0
    5.5580   -2.4790   -1.3180 H   0  0  0  0  0
    6.3940   -4.5670   -0.1450 H   0  0  0  0  0
    7.6770   -3.5790   -0.8910 H   0  0  0  0  0
    6.8320   -3.2980    2.0280 H   0  0  0  0  0
    8.1740   -4.3450    1.4950 H   0  0  0  0  0
    9.3610   -2.4600    0.5510 H   0  0  0  0  0
    8.8910   -2.0250    2.2090 H   0  0  0  0  0
   -1.3230   -0.6130    0.7720 H   0  0  0  0  0
   -1.3570    1.1090    0.3240 H   0  0  0  0  0
   -0.1810   -1.1460   -1.3640 H   0  0  0  0  0
   -0.2150    0.5770   -1.8120 H   0  0  0  0  0
    1.1380    1.1250    0.1930 H   0  0  0  0  0
    1.1720   -0.5970    0.6410 H   0  0  0  0  0
   -2.7100    0.5610   -1.6810 H   0  0  0  0  0
   -2.6750   -1.1610   -1.2330 H   0  0  0  0  0
    2.3150   -1.1300   -1.4950 H   0  0  0  0  0
    2.2800    0.5930   -1.9420 H   0  0  0  0  0
   -6.1740    0.2920    1.0910 H   0  0  0  0  0
    3.6670   -0.5810    0.5100 H   0  0  0  0  0
    3.6330    1.1410    0.0620 H   0  0  0  0  0
   -9.2750   -0.8690   -3.1550 H   0  0  0  0  0
   -6.9800   -0.6110   -2.3220 H   0  0  0  0  0
   -3.8180   -0.6290    0.9020 H   0  0  0  0  0
   -3.8520    1.0930    0.4550 H   0  0  0  0  0
   -5.1700   -1.1780   -1.1020 H   0  0  0  0  0
   -5.2050    0.5450   -1.5500 H   0  0  0  0  0
   -7.6050    0.5720    2.2760 H   0  0  0  0  0
   -9.5930    0.8910    3.6530 H   0  0  0  0  0
  -11.8390    0.5980    2.7020 H   0  0  0  0  0
  -12.1360   -0.0170    0.3650 H   0  0  0  0  0
  1  2  2  0  0  0
  1  6  1  0  0  0
  1  7  1  0  0  0
  2  3  1  0  0  0
  2 10  1  0  0  0
  3  4  2  0  0  0
  3 35  1  0  0  0
  4  5  1  0  0  0
  4 36  1  0  0  0
  5  6  2  0  0  0
  5 37  1  0  0  0
  6 38  1  0  0  0
  7  8  2  0  0  0
  8  9  1  0  0  0
  8 15  1  0  0  0
  9 10  2  0  0  0
  9 12  1  0  0  0
 10 11  1  0  0  0
 11 22  1  0  0  0
 11 39  1  0  0  0
 12 13  1  0  0  0
 12 40  1  0  0  0
 12 41  1  0  0  0
 13 14  1  0  0  0
 13 42  1  0  0  0
 13 43  1  0  0  0
 14 15  1  0  0  0
 14 44  1  0  0  0
 14 45  1  0  0  0
 15 46  1  0  0  0
 15 47  1  0  0  0
 16 17  1  0  0  0
 16 19  1  0  0  0
 16 48  1  0  0  0
 16 49  1  0  0  0
 17 18  1  0  0  0
 17 50  1  0  0  0
 17 51  1  0  0  0
 18 20  1  0  0  0
 18 52  1  0  0  0
 18 53  1  0  0  0
 19 25  1  0  0  0
 19 54  1  0  0  0
 19 55  1  0  0  0
 20 22  1  0  0  0
 20 56  1  0  0  0
 20 57  1  0  0  0
 21 26  1  0  0  0
 21 30  1  0  0  0
 21 58  1  0  0  0
 22 59  1  0  0  0
 22 60  1  0  0  0
 23 24  2  0  0  0
 23 27  1  0  0  0
 23 61  1  0  0  0
 24 30  1  0  0  0
 24 62  1  0  0  0
 25 26  1  0  0  0
 25 63  1  0  0  0
 25 64  1  0  0  0
 26 65  1  0  0  0
 26 66  1  0  0  0
 27 28  2  0  0  0
 28 29  1  0  0  0
 28 34  1  0  0  0
 29 30  2  0  0  0
 29 31  1  0  0  0
 31 32  2  0  0  0
 31 67  1  0  0  0
 32 33  1  0  0  0
 32 68  1  0  0  0
 33 34  2  0  0  0
 33 69  1  0  0  0
 34 70  1  0  0  0
M  END
$$$$
