A8M
  CCTOOLS-0919241027

 50 52  0  0  1  0  0  0  0  0999 V2000
   -6.8990    3.2520   -0.5230 N   0  0  0  0  0
   -6.3360    2.1620    0.2850 C   0  0  0  0  0
   -5.1870    1.5020   -0.4790 C   0  0  0  0  0
   -4.6000    0.3670    0.3630 C   0  0  0  0  0
   -3.4970   -0.2670   -0.3710 N   0  0  0  0  0
   -3.9870   -0.9440   -1.5790 C   0  0  0  0  0
   -2.7570   -1.1980    0.4920 C   0  0  0  0  0
   -1.4790   -1.6460   -0.2200 C   0  0  0  0  0
   -0.5860   -0.5300   -0.3690 O   0  0  0  0  0
    0.7570   -1.0460   -0.2520 C   0  0  0  0  0
    1.6900    0.0220    0.1150 N   0  0  0  0  0
    2.9330    0.2350   -0.4260 C   0  0  0  0  0
    3.6650   -0.3630   -1.3600 N   0  0  0  0  0
    4.8620    0.0930   -1.6680 C   0  0  0  0  0
    5.3920    1.1480   -1.0780 N   0  0  0  0  0
    4.7340    1.8110   -0.1320 C   0  0  0  0  0
    5.2990    2.9170    0.4810 N   0  0  0  0  0
    3.4530    1.3630    0.2320 C   0  0  0  0  0
    2.5180    1.7730    1.1220 N   0  0  0  0  0
    1.4800    0.9900    1.0510 C   0  0  0  0  0
    0.6460   -2.0890    0.8900 C   0  0  0  0  0
    1.6700   -3.0790    0.7780 O   0  0  0  0  0
   -0.7500   -2.7050    0.6310 C   0  0  0  0  0
   -0.6290   -3.9310   -0.0940 O   0  0  0  0  0
    0.2330    1.1310    1.8840 C   0  0  0  0  0
   -7.1930    2.9170   -1.4280 H   0  0  0  0  0
   -7.6610    3.7040   -0.0390 H   0  0  0  0  0
   -5.9630    2.5630    1.2270 H   0  0  0  0  0
   -7.1110    1.4220    0.4870 H   0  0  0  0  0
   -5.5600    1.1010   -1.4210 H   0  0  0  0  0
   -4.4120    2.2420   -0.6800 H   0  0  0  0  0
   -4.2270    0.7680    1.3050 H   0  0  0  0  0
   -5.3750   -0.3730    0.5640 H   0  0  0  0  0
   -4.4700   -0.2180   -2.2320 H   0  0  0  0  0
   -3.1500   -1.4050   -2.1030 H   0  0  0  0  0
   -4.7070   -1.7130   -1.2970 H   0  0  0  0  0
   -2.4980   -0.7000    1.4260 H   0  0  0  0  0
   -3.3790   -2.0680    0.7040 H   0  0  0  0  0
   -1.7240   -2.0580   -1.1980 H   0  0  0  0  0
    1.0680   -1.5230   -1.1810 H   0  0  0  0  0
    5.4310   -0.4170   -2.4310 H   0  0  0  0  0
    6.1840    3.2160    0.2210 H   0  0  0  0  0
    4.8090    3.3920    1.1700 H   0  0  0  0  0
    0.6820   -1.6030    1.8650 H   0  0  0  0  0
    1.6410   -3.7540    1.4700 H   0  0  0  0  0
   -1.2760   -2.8680    1.5710 H   0  0  0  0  0
   -0.1780   -4.6340    0.3940 H   0  0  0  0  0
    0.3440    0.5580    2.8050 H   0  0  0  0  0
    0.0750    2.1820    2.1270 H   0  0  0  0  0
   -0.6230    0.7560    1.3230 H   0  0  0  0  0
  1  2  1  0  0  0
  1 26  1  0  0  0
  1 27  1  0  0  0
  2  3  1  0  0  0
  2 28  1  0  0  0
  2 29  1  0  0  0
  3  4  1  0  0  0
  3 30  1  0  0  0
  3 31  1  0  0  0
  4  5  1  0  0  0
  4 32  1  0  0  0
  4 33  1  0  0  0
  5  6  1  0  0  0
  5  7  1  0  0  0
  6 34  1  0  0  0
  6 35  1  0  0  0
  6 36  1  0  0  0
  7  8  1  0  0  0
  7 37  1  0  0  0
  7 38  1  0  0  0
  8  9  1  0  0  0
  8 23  1  0  0  0
  8 39  1  0  0  0
  9 10  1  0  0  0
 10 11  1  0  0  0
 10 21  1  0  0  0
 10 40  1  0  0  0
 11 12  1  0  0  0
 11 20  1  0  0  0
 12 13  2  0  0  0
 12 18  1  0  0  0
 13 14  1  0  0  0
 14 15  2  0  0  0
 14 41  1  0  0  0
 15 16  1  0  0  0
 16 17  1  0  0  0
 16 18  2  0  0  0
 17 42  1  0  0  0
 17 43  1  0  0  0
 18 19  1  0  0  0
 19 20  2  0  0  0
 20 25  1  0  0  0
 21 22  1  0  0  0
 21 23  1  0  0  0
 21 44  1  0  0  0
 22 45  1  0  0  0
 23 24  1  0  0  0
 23 46  1  0  0  0
 24 47  1  0  0  0
 25 48  1  0  0  0
 25 49  1  0  0  0
 25 50  1  0  0  0
M  END
$$$$
