A8N
  CCTOOLS-0919241027

 57 59  0  0  0  0  0  0  0  0999 V2000
    4.3980   -3.5150   -0.1090 C   0  0  0  0  0
    2.8690   -3.5920   -0.1860 C   0  0  0  0  0
    2.2880   -2.4440    0.6370 C   0  0  0  0  0
    2.9200   -1.1360    0.2410 C   0  0  0  0  0
    4.1080   -1.0610   -0.4630 C   0  0  0  0  0
    4.8600   -2.2940   -0.9010 C   0  0  0  0  0
    2.2640    0.0340    0.6140 C   0  0  0  0  0
    2.8400    1.2720    0.2530 C   0  0  0  0  0
    4.0620    1.2680   -0.4610 C   0  0  0  0  0
    4.6350    0.1080   -0.7860 N   0  3  0  0  0
    1.0720   -0.0150    1.3200 N   0  0  0  0  0
    2.2400    2.4910    0.5970 C   0  0  0  0  0
    2.8340    3.6610    0.2330 C   0  0  0  0  0
    4.0340    3.6620   -0.4740 C   0  0  0  0  0
    4.6460    2.4960   -0.8200 C   0  0  0  0  0
   -0.0080    0.1250    0.3330 C   0  0  0  0  0
   -1.3590   -0.0510    1.0290 C   0  0  0  0  0
   -2.4840    0.0940    0.0010 C   0  0  0  0  0
   -3.8360   -0.0820    0.6970 C   0  0  0  0  0
   -4.9600    0.0630   -0.3310 C   0  0  0  0  0
   -6.3120   -0.1130    0.3650 C   0  0  0  0  0
   -7.4360    0.0330   -0.6630 C   0  0  0  0  0
   -8.7880   -0.1430    0.0330 C   0  0  0  0  0
   -9.8680   -0.0030   -0.9540 N   0  3  0  0  0
    4.8330   -4.4170   -0.5390 H   0  0  0  0  0
    2.5480   -3.4990   -1.2240 H   0  0  0  0  0
    1.2120   -2.3890    0.4690 H   0  0  0  0  0
    4.6820   -2.4660   -1.9620 H   0  0  0  0  0
    5.4710    0.1230   -1.2780 H   0  0  0  0  0
    1.0440    0.8100    1.8990 H   0  0  0  0  0
    0.0000    0.0000    0.0000 H   0  0  0  0  0
    1.3090    2.5020    1.1450 H   0  0  0  0  0
    0.0000    0.0000    0.0000 H   0  0  0  0  0
    2.3700    4.6000    0.4950 H   0  0  0  0  0
    0.0000    0.0000    0.0000 H   0  0  0  0  0
    4.4870    4.6020   -0.7520 H   0  0  0  0  0
    0.0000    0.0000    0.0000 H   0  0  0  0  0
    5.5770    2.5140   -1.3680 H   0  0  0  0  0
    0.1050   -0.6360   -0.4390 H   0  0  0  0  0
    0.0410    1.1140   -0.1210 H   0  0  0  0  0
   -1.4720    0.7090    1.8010 H   0  0  0  0  0
   -1.4080   -1.0410    1.4830 H   0  0  0  0  0
   -2.3710   -0.6660   -0.7710 H   0  0  0  0  0
   -2.4350    1.0840   -0.4530 H   0  0  0  0  0
   -3.9490    0.6790    1.4690 H   0  0  0  0  0
   -3.8840   -1.0720    1.1510 H   0  0  0  0  0
   -4.8470   -0.6970   -1.1030 H   0  0  0  0  0
   -4.9110    1.0530   -0.7850 H   0  0  0  0  0
   -6.4250    0.6480    1.1370 H   0  0  0  0  0
   -6.3600   -1.1020    0.8190 H   0  0  0  0  0
   -7.3230   -0.7280   -1.4350 H   0  0  0  0  0
   -7.3880    1.0220   -1.1170 H   0  0  0  0  0
   -8.9010    0.6170    0.8050 H   0  0  0  0  0
   -8.8370   -1.1330    0.4870 H   0  0  0  0  0
   -9.7630   -0.7070   -1.6690 H   0  0  0  0  0
   -9.8230    0.9130   -1.3740 H   0  0  0  0  0
  -10.7590   -0.1200   -0.4950 H   0  0  0  0  0
  1  2  2  0  0  0
  1  6  1  0  0  0
  1 25  1  0  0  0
  2  3  1  0  0  0
  2 26  1  0  0  0
  3  4  2  0  0  0
  3 27  1  0  0  0
  4  5  1  0  0  0
  4  7  1  0  0  0
  5  6  2  0  0  0
  5 10  1  0  0  0
  6 28  1  0  0  0
  7  8  2  0  0  0
  7 11  1  0  0  0
  8  9  1  0  0  0
  8 12  1  0  0  0
  9 10  2  0  0  0
  9 15  1  0  0  0
 10 29  1  0  0  0
 11 16  1  0  0  0
 11 30  1  0  0  0
 12 13  1  0  0  0
 12 31  1  0  0  0
 12 32  1  0  0  0
 13 14  1  0  0  0
 13 33  1  0  0  0
 13 34  1  0  0  0
 14 15  1  0  0  0
 14 35  1  0  0  0
 14 36  1  0  0  0
 15 37  1  0  0  0
 15 38  1  0  0  0
 16 17  1  0  0  0
 16 39  1  0  0  0
 16 40  1  0  0  0
 17 18  1  0  0  0
 17 41  1  0  0  0
 17 42  1  0  0  0
 18 19  1  0  0  0
 18 43  1  0  0  0
 18 44  1  0  0  0
 19 20  1  0  0  0
 19 45  1  0  0  0
 19 46  1  0  0  0
 20 21  1  0  0  0
 20 47  1  0  0  0
 20 48  1  0  0  0
 21 22  1  0  0  0
 21 49  1  0  0  0
 21 50  1  0  0  0
 22 23  1  0  0  0
 22 51  1  0  0  0
 22 52  1  0  0  0
 23 24  1  0  0  0
 23 53  1  0  0  0
 23 54  1  0  0  0
 24 55  1  0  0  0
 24 56  1  0  0  0
 24 57  1  0  0  0
M  CHG  1  10   1
M  CHG  1  24   1
M  END
$$$$
