AAM
  CCTOOLS-0919241027

 37 39  0  0  1  0  0  0  0  0999 V2000
   -1.1420    1.2850    1.7280 C   0  0  0  0  0
   -1.6670    1.6470    2.8650 N   0  0  0  0  0
   -1.2800    0.7990    3.8360 C   0  0  0  0  0
   -0.4440   -0.1550    3.2330 C   0  0  0  0  0
   -0.3830    0.1790    1.8970 N   0  0  0  0  0
   -1.5170    0.7060    5.1480 N   0  0  0  0  0
   -0.9820   -0.2630    5.8580 C   0  0  0  0  0
   -0.1960   -1.1810    5.3260 N   0  0  0  0  0
    0.0950   -1.1680    4.0280 C   0  0  0  0  0
    0.9210   -2.1350    3.4780 N   0  0  0  0  0
   -0.7690   -0.2620   -4.7150 P   0  0  0  0  0
   -0.5390   -1.7240   -4.7460 O   0  0  0  0  0
   -2.2230    0.0640   -5.3250 O   0  0  0  0  0
    0.3590    0.4770   -5.5910 O   0  0  0  0  0
   -0.6960    0.2590   -3.1940 O   0  0  0  0  0
    0.6100   -0.0580   -2.7100 C   0  0  0  0  0
    0.7460    0.4140   -1.2610 C   0  0  0  0  0
   -0.2080   -0.2580   -0.4250 O   0  0  0  0  0
    2.1320    0.0170   -0.6930 C   0  0  0  0  0
    3.1160    1.0080   -0.9960 O   0  0  0  0  0
    1.8260   -0.0220    0.8300 C   0  0  0  0  0
    1.9260    1.2830    1.4030 O   0  0  0  0  0
    0.3680   -0.5270    0.8570 C   0  0  0  0  0
   -1.2920    1.7940    0.7870 H   0  0  0  0  0
   -1.1940   -0.3100    6.9160 H   0  0  0  0  0
    1.2130   -2.8870    4.0170 H   0  0  0  0  0
    1.2030   -2.0620    2.5530 H   0  0  0  0  0
   -2.2240   -0.2630   -6.2350 H   0  0  0  0  0
    0.1730    1.4250   -5.5450 H   0  0  0  0  0
    1.3570    0.4410   -3.3270 H   0  0  0  0  0
    0.7620   -1.1360   -2.7570 H   0  0  0  0  0
    0.6070    1.4930   -1.2010 H   0  0  0  0  0
    2.4400   -0.9620   -1.0560 H   0  0  0  0  0
    3.9490    0.7000   -0.6150 H   0  0  0  0  0
    2.4900   -0.7190    1.3410 H   0  0  0  0  0
    2.8390    1.5760    1.2740 H   0  0  0  0  0
    0.3510   -1.5990    1.0530 H   0  0  0  0  0
  1  2  2  0  0  0
  1  5  1  0  0  0
  1 24  1  0  0  0
  2  3  1  0  0  0
  3  4  2  0  0  0
  3  6  1  0  0  0
  4  5  1  0  0  0
  4  9  1  0  0  0
  5 23  1  0  0  0
  6  7  2  0  0  0
  7  8  1  0  0  0
  7 25  1  0  0  0
  8  9  2  0  0  0
  9 10  1  0  0  0
 10 26  1  0  0  0
 10 27  1  0  0  0
 11 12  2  0  0  0
 11 13  1  0  0  0
 11 14  1  0  0  0
 11 15  1  0  0  0
 13 28  1  0  0  0
 14 29  1  0  0  0
 15 16  1  0  0  0
 16 17  1  0  0  0
 16 30  1  0  0  0
 16 31  1  0  0  0
 17 18  1  0  0  0
 17 19  1  0  0  0
 17 32  1  0  0  0
 18 23  1  0  0  0
 19 20  1  0  0  0
 19 21  1  0  0  0
 19 33  1  0  0  0
 20 34  1  0  0  0
 21 22  1  0  0  0
 21 23  1  0  0  0
 21 35  1  0  0  0
 22 36  1  0  0  0
 23 37  1  0  0  0
M  END
$$$$
