AB1
  CCTOOLS-0919241027

 94 97  0  0  1  0  0  0  0  0999 V2000
   -8.0800    1.4200   -1.3680 C   0  0  0  0  0
   -6.5910   -0.5440   -1.7110 C   0  0  0  0  0
   -5.4630    0.3510   -1.4500 N   0  0  0  0  0
   -5.6520    1.6480   -1.1660 C   0  0  0  0  0
   -6.8710    2.2080   -1.1250 N   0  0  0  0  0
    3.1440    3.1690    1.0520 C   0  0  0  0  0
    4.0810    2.9940    0.0520 C   0  0  0  0  0
    5.4040    3.3260    0.2780 C   0  0  0  0  0
    5.7890    3.8340    1.5040 C   0  0  0  0  0
    4.8510    4.0110    2.5050 C   0  0  0  0  0
    3.5280    3.6820    2.2770 C   0  0  0  0  0
   -4.6810    2.3460   -0.9470 O   0  0  0  0  0
   -4.0990   -0.1820   -1.4930 C   0  0  0  0  0
   -3.4910   -0.1210   -0.1160 C   0  0  0  0  0
   -2.2840   -0.6730    0.1140 N   0  0  0  0  0
   -1.7540   -0.7360    1.4780 C   0  0  0  0  0
   -3.2560    0.6520   -2.4600 C   0  0  0  0  0
   -1.8820    0.0000   -2.6320 C   0  0  0  0  0
   -3.9590    0.7240   -3.8170 C   0  0  0  0  0
   -4.0890    0.4270    0.7870 O   0  0  0  0  0
   -5.5470   -3.1470    1.2730 C   0  0  0  0  0
   -6.1970   -2.8020    2.4440 C   0  0  0  0  0
   -5.4870   -2.2410    3.4890 C   0  0  0  0  0
   -4.1270   -2.0280    3.3650 C   0  0  0  0  0
   -3.4780   -2.3680    2.1930 C   0  0  0  0  0
   -4.1880   -2.9300    1.1480 C   0  0  0  0  0
   -1.9960   -2.1310    2.0560 C   0  0  0  0  0
   -0.2510   -0.4470    1.4550 C   0  0  0  0  0
   -0.0190    1.0140    1.0650 C   0  0  0  0  0
    1.4690    1.3460    1.1970 C   0  0  0  0  0
    2.2440    0.4740    0.3110 N   0  0  0  0  0
    3.5360    0.2080    0.5890 C   0  0  0  0  0
    4.3340   -0.6890   -0.3220 C   0  0  0  0  0
    5.6650   -0.8170    0.1810 O   0  0  0  0  0
    6.3330   -1.6320   -0.6770 C   0  0  0  0  0
   -0.4340    1.2170   -0.2870 O   0  0  0  0  0
    1.7020    2.8070    0.8060 C   0  0  0  0  0
    4.0560    0.6900    1.5730 O   0  0  0  0  0
    7.0100   -1.0940   -1.7610 C   0  0  0  0  0
    7.6880   -1.9240   -2.6320 C   0  0  0  0  0
    7.6920   -3.2910   -2.4240 C   0  0  0  0  0
    7.0180   -3.8300   -1.3440 C   0  0  0  0  0
    6.3430   -3.0030   -0.4670 C   0  0  0  0  0
    5.6080   -3.5910    0.7100 C   0  0  0  0  0
    7.0070    0.3960   -1.9890 C   0  0  0  0  0
   -7.7440    0.2630   -2.3160 C   0  0  0  0  0
   -8.8430    2.0530   -1.8210 H   0  0  0  0  0
   -8.4500    1.0210   -0.4230 H   0  0  0  0  0
   -6.2850   -1.3220   -2.4110 H   0  0  0  0  0
   -6.9170   -1.0020   -0.7770 H   0  0  0  0  0
   -6.9520    3.1540   -0.9270 H   0  0  0  0  0
    3.7800    2.5970   -0.9060 H   0  0  0  0  0
    6.1360    3.1880   -0.5040 H   0  0  0  0  0
    6.8220    4.0930    1.6810 H   0  0  0  0  0
    5.1520    4.4070    3.4630 H   0  0  0  0  0
    2.7950    3.8200    3.0590 H   0  0  0  0  0
   -4.1240   -1.2180   -1.8330 H   0  0  0  0  0
   -1.7650   -1.0300   -0.6250 H   0  0  0  0  0
   -2.2570    0.0070    2.0970 H   0  0  0  0  0
   -3.1330    1.6580   -2.0600 H   0  0  0  0  0
   -1.3150    0.5420   -3.3880 H   0  0  0  0  0
   -1.3450    0.0290   -1.6840 H   0  0  0  0  0
   -2.0090   -1.0360   -2.9460 H   0  0  0  0  0
   -4.8960    1.2700   -3.7120 H   0  0  0  0  0
   -3.3170    1.2390   -4.5320 H   0  0  0  0  0
   -4.1640   -0.2850   -4.1750 H   0  0  0  0  0
   -6.1020   -3.5850    0.4570 H   0  0  0  0  0
   -7.2590   -2.9710    2.5410 H   0  0  0  0  0
   -5.9950   -1.9710    4.4030 H   0  0  0  0  0
   -3.5730   -1.5900    4.1820 H   0  0  0  0  0
   -3.6800   -3.1990    0.2340 H   0  0  0  0  0
   -1.5690   -2.8800    1.3890 H   0  0  0  0  0
   -1.5250   -2.2060    3.0360 H   0  0  0  0  0
    0.1690   -0.6300    2.4440 H   0  0  0  0  0
    0.2330   -1.0990    0.7280 H   0  0  0  0  0
   -0.5960    1.6630    1.7240 H   0  0  0  0  0
    1.7860    1.1910    2.2280 H   0  0  0  0  0
    1.8280    0.0890   -0.4760 H   0  0  0  0  0
    3.8660   -1.6720   -0.3650 H   0  0  0  0  0
    4.3640   -0.2560   -1.3220 H   0  0  0  0  0
    0.0960    0.6230   -0.8350 H   0  0  0  0  0
    1.4680    2.9420   -0.2500 H   0  0  0  0  0
    1.0580    3.4510    1.4060 H   0  0  0  0  0
    8.2160   -1.5060   -3.4770 H   0  0  0  0  0
    8.2230   -3.9390   -3.1060 H   0  0  0  0  0
    7.0220   -4.8980   -1.1830 H   0  0  0  0  0
    6.2800   -3.6480    1.5670 H   0  0  0  0  0
    4.7550   -2.9590    0.9580 H   0  0  0  0  0
    5.2570   -4.5910    0.4560 H   0  0  0  0  0
    7.8540    0.8450   -1.4700 H   0  0  0  0  0
    7.0850    0.6010   -3.0570 H   0  0  0  0  0
    6.0790    0.8200   -1.6050 H   0  0  0  0  0
   -7.4440    0.6610   -3.2850 H   0  0  0  0  0
   -8.6180   -0.3780   -2.4350 H   0  0  0  0  0
  1  5  1  0  0  0
  1 46  1  0  0  0
  1 47  1  0  0  0
  1 48  1  0  0  0
  2  3  1  0  0  0
  2 46  1  0  0  0
  2 49  1  0  0  0
  2 50  1  0  0  0
  3  4  1  0  0  0
  3 13  1  0  0  0
  4  5  1  0  0  0
  4 12  2  0  0  0
  5 51  1  0  0  0
  6  7  2  0  0  0
  6 11  1  0  0  0
  6 37  1  0  0  0
  7  8  1  0  0  0
  7 52  1  0  0  0
  8  9  2  0  0  0
  8 53  1  0  0  0
  9 10  1  0  0  0
  9 54  1  0  0  0
 10 11  2  0  0  0
 10 55  1  0  0  0
 11 56  1  0  0  0
 13 14  1  0  0  0
 13 17  1  0  0  0
 13 57  1  0  0  0
 14 15  1  0  0  0
 14 20  2  0  0  0
 15 16  1  0  0  0
 15 58  1  0  0  0
 16 27  1  0  0  0
 16 28  1  0  0  0
 16 59  1  0  0  0
 17 18  1  0  0  0
 17 19  1  0  0  0
 17 60  1  0  0  0
 18 61  1  0  0  0
 18 62  1  0  0  0
 18 63  1  0  0  0
 19 64  1  0  0  0
 19 65  1  0  0  0
 19 66  1  0  0  0
 21 22  2  0  0  0
 21 26  1  0  0  0
 21 67  1  0  0  0
 22 23  1  0  0  0
 22 68  1  0  0  0
 23 24  2  0  0  0
 23 69  1  0  0  0
 24 25  1  0  0  0
 24 70  1  0  0  0
 25 26  2  0  0  0
 25 27  1  0  0  0
 26 71  1  0  0  0
 27 72  1  0  0  0
 27 73  1  0  0  0
 28 29  1  0  0  0
 28 74  1  0  0  0
 28 75  1  0  0  0
 29 30  1  0  0  0
 29 36  1  0  0  0
 29 76  1  0  0  0
 30 31  1  0  0  0
 30 37  1  0  0  0
 30 77  1  0  0  0
 31 32  1  0  0  0
 31 78  1  0  0  0
 32 33  1  0  0  0
 32 38  2  0  0  0
 33 34  1  0  0  0
 33 79  1  0  0  0
 33 80  1  0  0  0
 34 35  1  0  0  0
 35 39  2  0  0  0
 35 43  1  0  0  0
 36 81  1  0  0  0
 37 82  1  0  0  0
 37 83  1  0  0  0
 39 40  1  0  0  0
 39 45  1  0  0  0
 40 41  2  0  0  0
 40 84  1  0  0  0
 41 42  1  0  0  0
 41 85  1  0  0  0
 42 43  2  0  0  0
 42 86  1  0  0  0
 43 44  1  0  0  0
 44 87  1  0  0  0
 44 88  1  0  0  0
 44 89  1  0  0  0
 45 90  1  0  0  0
 45 91  1  0  0  0
 45 92  1  0  0  0
 46 93  1  0  0  0
 46 94  1  0  0  0
M  END
$$$$
