ABA
  CCTOOLS-1004241125

 16 15  0  0  1  0  0  0  0  0999 V2000
   -0.6440    1.5450    0.3930 N   0  0  0  0  0
   -0.2990    0.1170    0.4320 C   0  0  0  0  0
    1.1410   -0.0630    0.0300 C   0  0  0  0  0
    1.7070    0.8030   -0.5950 O   0  0  0  0  0
   -1.2000   -0.6510   -0.5370 C   0  0  0  0  0
   -2.6510   -0.5720   -0.0570 C   0  0  0  0  0
    1.7960   -1.1860    0.3640 O   0  0  0  0  0
   -0.5170    1.9220   -0.5350 H   0  0  0  0  0
   -1.5860    1.6990    0.7200 H   0  0  0  0  0
   -0.4450   -0.2630    1.4430 H   0  0  0  0  0
   -1.1220   -0.2130   -1.5310 H   0  0  0  0  0
   -0.8870   -1.6950   -0.5740 H   0  0  0  0  0
   -2.7290   -1.0100    0.9380 H   0  0  0  0  0
   -2.9640    0.4720   -0.0200 H   0  0  0  0  0
   -3.2920   -1.1190   -0.7470 H   0  0  0  0  0
    2.7190   -1.2560    0.0840 H   0  0  0  0  0
  1  2  1  0  0  0
  1  8  1  0  0  0
  1  9  1  0  0  0
  2  3  1  0  0  0
  2  5  1  0  0  0
  2 10  1  0  0  0
  3  4  2  0  0  0
  3  7  1  0  0  0
  5  6  1  0  0  0
  5 11  1  0  0  0
  5 12  1  0  0  0
  6 13  1  0  0  0
  6 14  1  0  0  0
  6 15  1  0  0  0
  7 16  1  0  0  0
M  END
$$$$
