ABN
  CCTOOLS-1004241125

 17 17  0  0  0  0  0  0  0  0999 V2000
    0.0230   -0.7010    2.6800 N   0  0  0  0  0
    0.0360    0.5680    1.9430 C   0  0  0  0  0
    0.0170    0.2900    0.4620 C   0  0  0  0  0
   -1.1880    0.1810   -0.2050 C   0  0  0  0  0
   -1.2050   -0.0730   -1.5630 C   0  0  0  0  0
   -0.0170   -0.2200   -2.2540 C   0  0  0  0  0
    1.1880   -0.1100   -1.5870 C   0  0  0  0  0
    1.2050    0.1490   -0.2290 C   0  0  0  0  0
   -0.8700   -1.1340    2.4970 H   0  0  0  0  0
    0.0360   -0.4670    3.6610 H   0  0  0  0  0
   -0.8420    1.1540    2.2130 H   0  0  0  0  0
    0.9370    1.1260    2.1960 H   0  0  0  0  0
   -2.1160    0.2950    0.3340 H   0  0  0  0  0
   -2.1470   -0.1590   -2.0850 H   0  0  0  0  0
   -0.0300   -0.4200   -3.3150 H   0  0  0  0  0
    2.1170   -0.2250   -2.1260 H   0  0  0  0  0
    2.1470    0.2340    0.2920 H   0  0  0  0  0
  1  2  1  0  0  0
  1  9  1  0  0  0
  1 10  1  0  0  0
  2  3  1  0  0  0
  2 11  1  0  0  0
  2 12  1  0  0  0
  3  4  2  0  0  0
  3  8  1  0  0  0
  4  5  1  0  0  0
  4 13  1  0  0  0
  5  6  2  0  0  0
  5 14  1  0  0  0
  6  7  1  0  0  0
  6 15  1  0  0  0
  7  8  2  0  0  0
  7 16  1  0  0  0
  8 17  1  0  0  0
M  END
$$$$
