ABU
  CCTOOLS-1004241125

 16 15  0  0  0  0  0  0  0  0999 V2000
    3.3180    0.3470   -0.0320 N   0  0  0  0  0
    2.1770   -0.5780   -0.0100 C   0  0  0  0  0
    0.8720    0.2210   -0.0160 C   0  0  0  0  0
   -0.3160   -0.7430    0.0060 C   0  0  0  0  0
   -1.6010    0.0440    0.0010 C   0  0  0  0  0
   -1.5700    1.2520   -0.0190 O   0  0  0  0  0
   -2.7800   -0.5960    0.0180 O   0  0  0  0  0
    3.2720    0.9970    0.7390 H   0  0  0  0  0
    4.1920   -0.1560   -0.0280 H   0  0  0  0  0
    2.2140   -1.2200   -0.8900 H   0  0  0  0  0
    2.2240   -1.1910    0.8900 H   0  0  0  0  0
    0.8360    0.8630    0.8640 H   0  0  0  0  0
    0.8260    0.8340   -0.9160 H   0  0  0  0  0
   -0.2790   -1.3850   -0.8740 H   0  0  0  0  0
   -0.2690   -1.3560    0.9060 H   0  0  0  0  0
   -3.5780   -0.0490    0.0130 H   0  0  0  0  0
  1  2  1  0  0  0
  1  8  1  0  0  0
  1  9  1  0  0  0
  2  3  1  0  0  0
  2 10  1  0  0  0
  2 11  1  0  0  0
  3  4  1  0  0  0
  3 12  1  0  0  0
  3 13  1  0  0  0
  4  5  1  0  0  0
  4 14  1  0  0  0
  4 15  1  0  0  0
  5  6  2  0  0  0
  5  7  1  0  0  0
  7 16  1  0  0  0
M  END
$$$$
