AC6
  CCTOOLS-0919241027

 18 18  0  0  0  0  0  0  0  0999 V2000
   -2.0970    0.0300   -0.0190 C   0  0  0  0  0
   -1.4380   -1.1940   -0.0140 C   0  0  0  0  0
   -0.0670   -1.2380   -0.0060 C   0  0  0  0  0
    0.6680   -0.0460   -0.0040 C   0  0  0  0  0
    0.0000    1.1840   -0.0030 C   0  0  0  0  0
   -1.3710    1.2170   -0.0170 C   0  0  0  0  0
   -3.4530    0.0680   -0.0270 O   0  0  0  0  0
    2.7140   -1.1540    0.0090 O   0  0  0  0  0
    2.1360   -0.0870    0.0050 C   0  0  0  0  0
    2.9260    1.1970    0.0070 C   0  0  0  0  0
   -2.0060   -2.1120   -0.0160 H   0  0  0  0  0
    0.4440   -2.1890   -0.0030 H   0  0  0  0  0
    0.5630    2.1060    0.0000 H   0  0  0  0  0
   -1.8880    2.1650   -0.0210 H   0  0  0  0  0
   -3.7380    0.0770    0.8970 H   0  0  0  0  0
    3.9910    0.9680    0.0140 H   0  0  0  0  0
    2.6830    1.7750   -0.8850 H   0  0  0  0  0
    2.6730    1.7770    0.8950 H   0  0  0  0  0
  1  2  2  0  0  0
  1  6  1  0  0  0
  1  7  1  0  0  0
  2  3  1  0  0  0
  2 11  1  0  0  0
  3  4  2  0  0  0
  3 12  1  0  0  0
  4  5  1  0  0  0
  4  9  1  0  0  0
  5  6  2  0  0  0
  5 13  1  0  0  0
  6 14  1  0  0  0
  7 15  1  0  0  0
  8  9  2  0  0  0
  9 10  1  0  0  0
 10 16  1  0  0  0
 10 17  1  0  0  0
 10 18  1  0  0  0
M  END
$$$$
