AC9
  CCTOOLS-0919241028

 43 45  0  0  0  0  0  0  0  0999 V2000
    0.0000    0.0000    0.0000 CR  0  0  0  0  0
    0.0000    0.0000    0.0000 O   0  0  0  0  0
    0.0000    0.0000    0.0000 O   0  0  0  0  0
    0.0000    0.0000    0.0000 O   0  0  0  0  0
    0.0000    0.0000    0.0000 O   0  0  0  0  0
    0.0000    0.0000    0.0000 O   0  0  0  0  0
    0.0000    0.0000    0.0000 O   0  0  0  0  0
    0.0000    0.0000    0.0000 C   0  0  0  0  0
    0.0000    0.0000    0.0000 C   0  0  0  0  0
    0.0000    0.0000    0.0000 C   0  0  0  0  0
    0.0000    0.0000    0.0000 C   0  0  0  0  0
    0.0000    0.0000    0.0000 C   0  0  0  0  0
    0.0000    0.0000    0.0000 C   0  0  0  0  0
    0.0000    0.0000    0.0000 C   0  0  0  0  0
    0.0000    0.0000    0.0000 C   0  0  0  0  0
    0.0000    0.0000    0.0000 C   0  0  0  0  0
    0.0000    0.0000    0.0000 C   0  0  0  0  0
    0.0000    0.0000    0.0000 C   0  0  0  0  0
    0.0000    0.0000    0.0000 C   0  0  0  0  0
    0.0000    0.0000    0.0000 C   0  0  0  0  0
    0.0000    0.0000    0.0000 C   0  0  0  0  0
    0.0000    0.0000    0.0000 C   0  0  0  0  0
    0.0000    0.0000    0.0000 H   0  0  0  0  0
    0.0000    0.0000    0.0000 H   0  0  0  0  0
    0.0000    0.0000    0.0000 H   0  0  0  0  0
    0.0000    0.0000    0.0000 H   0  0  0  0  0
    0.0000    0.0000    0.0000 H   0  0  0  0  0
    0.0000    0.0000    0.0000 H   0  0  0  0  0
    0.0000    0.0000    0.0000 H   0  0  0  0  0
    0.0000    0.0000    0.0000 H   0  0  0  0  0
    0.0000    0.0000    0.0000 H   0  0  0  0  0
    0.0000    0.0000    0.0000 H   0  0  0  0  0
    0.0000    0.0000    0.0000 H   0  0  0  0  0
    0.0000    0.0000    0.0000 H   0  0  0  0  0
    0.0000    0.0000    0.0000 H   0  0  0  0  0
    0.0000    0.0000    0.0000 H   0  0  0  0  0
    0.0000    0.0000    0.0000 H   0  0  0  0  0
    0.0000    0.0000    0.0000 H   0  0  0  0  0
    0.0000    0.0000    0.0000 H   0  0  0  0  0
    0.0000    0.0000    0.0000 H   0  0  0  0  0
    0.0000    0.0000    0.0000 H   0  0  0  0  0
    0.0000    0.0000    0.0000 H   0  0  0  0  0
    0.0000    0.0000    0.0000 H   0  0  0  0  0
  1  2  1  0  0  0
  1  3  1  0  0  0
  1  4  1  0  0  0
  1  5  1  0  0  0
  1  6  1  0  0  0
  1  7  1  0  0  0
  2  8  2  0  0  0
  3 10  1  0  0  0
  4 13  2  0  0  0
  5 15  1  0  0  0
  6 18  2  0  0  0
  7 20  1  0  0  0
  8  9  1  0  0  0
  8 11  1  0  0  0
  9 10  2  0  0  0
  9 23  1  0  0  0
 10 12  1  0  0  0
 11 24  1  0  0  0
 11 25  1  0  0  0
 11 26  1  0  0  0
 12 27  1  0  0  0
 12 28  1  0  0  0
 12 29  1  0  0  0
 13 14  1  0  0  0
 13 16  1  0  0  0
 14 15  2  0  0  0
 14 30  1  0  0  0
 15 17  1  0  0  0
 16 31  1  0  0  0
 16 32  1  0  0  0
 16 33  1  0  0  0
 17 34  1  0  0  0
 17 35  1  0  0  0
 17 36  1  0  0  0
 18 19  1  0  0  0
 18 21  1  0  0  0
 19 20  2  0  0  0
 19 37  1  0  0  0
 20 22  1  0  0  0
 21 38  1  0  0  0
 21 39  1  0  0  0
 21 40  1  0  0  0
 22 41  1  0  0  0
 22 42  1  0  0  0
 22 43  1  0  0  0
M  END
$$$$
