ACA
  CCTOOLS-1004241125

 22 21  0  0  0  0  0  0  0  0999 V2000
   -0.0690    0.0020   -2.7630 C   0  0  0  0  0
   -1.2760   -0.0160   -2.7140 O   0  0  0  0  0
    0.5530    0.0160   -3.9520 O   0  0  0  0  0
    0.7360    0.0090   -1.4900 C   0  0  0  0  0
   -0.2100   -0.0080   -0.2880 C   0  0  0  0  0
    0.6070   -0.0010    1.0040 C   0  0  0  0  0
   -0.3380   -0.0200    2.2070 C   0  0  0  0  0
    0.4790   -0.0120    3.5000 C   0  0  0  0  0
   -0.4280   -0.0300    4.6540 N   0  0  0  0  0
    0.0360    0.0110   -4.7690 H   0  0  0  0  0
    1.3510    0.9090   -1.4540 H   0  0  0  0  0
    1.3770   -0.8700   -1.4610 H   0  0  0  0  0
   -0.8250   -0.9080   -0.3230 H   0  0  0  0  0
   -0.8510    0.8710   -0.3170 H   0  0  0  0  0
    1.2220    0.8970    1.0400 H   0  0  0  0  0
    1.2490   -0.8810    1.0330 H   0  0  0  0  0
   -0.9530   -0.9190    2.1710 H   0  0  0  0  0
   -0.9800    0.8600    2.1780 H   0  0  0  0  0
    1.0940    0.8860    3.5350 H   0  0  0  0  0
    1.1210   -0.8930    3.5290 H   0  0  0  0  0
    0.1510   -0.0240    5.4790 H   0  0  0  0  0
   -0.9270    0.8460    4.6440 H   0  0  0  0  0
  1  2  2  0  0  0
  1  3  1  0  0  0
  1  4  1  0  0  0
  3 10  1  0  0  0
  4  5  1  0  0  0
  4 11  1  0  0  0
  4 12  1  0  0  0
  5  6  1  0  0  0
  5 13  1  0  0  0
  5 14  1  0  0  0
  6  7  1  0  0  0
  6 15  1  0  0  0
  6 16  1  0  0  0
  7  8  1  0  0  0
  7 17  1  0  0  0
  7 18  1  0  0  0
  8  9  1  0  0  0
  8 19  1  0  0  0
  8 20  1  0  0  0
  9 21  1  0  0  0
  9 22  1  0  0  0
M  END
$$$$
