ACH
  CCTOOLS-1004241125

 26 25  0  0  0  0  0  0  0  0999 V2000
   -1.8750    0.1270   -0.0650 N   0  3  0  0  0
   -1.2100   -0.7560    0.9030 C   0  0  0  0  0
    0.1940   -1.0980    0.4010 C   0  0  0  0  0
    1.0120    0.1010    0.3970 O   0  0  0  0  0
    2.2910    0.0400   -0.0080 C   0  0  0  0  0
    2.7600   -1.0120   -0.3700 O   0  0  0  0  0
    3.1400    1.2850   -0.0120 C   0  0  0  0  0
   -1.8530   -0.4990   -1.3940 C   0  0  0  0  0
   -3.2670    0.3480    0.3490 C   0  0  0  0  0
   -1.1690    1.4140   -0.1200 C   0  0  0  0  0
   -1.7890   -1.6720    1.0160 H   0  0  0  0  0
   -1.1380   -0.2500    1.8660 H   0  0  0  0  0
    0.1300   -1.4980   -0.6120 H   0  0  0  0  0
    0.6430   -1.8420    1.0580 H   0  0  0  0  0
    4.1400    1.0410   -0.3700 H   0  0  0  0  0
    2.6910    2.0300   -0.6690 H   0  0  0  0  0
    3.2040    1.6850    1.0000 H   0  0  0  0  0
   -2.3770   -1.4550   -1.3540 H   0  0  0  0  0
   -2.3470    0.1550   -2.1120 H   0  0  0  0  0
   -0.8210   -0.6640   -1.7020 H   0  0  0  0  0
   -3.2830    0.8130    1.3350 H   0  0  0  0  0
   -3.7600    1.0030   -0.3690 H   0  0  0  0  0
   -3.7900   -0.6070    0.3890 H   0  0  0  0  0
   -0.2070    1.2800   -0.6130 H   0  0  0  0  0
   -1.7680    2.1330   -0.6790 H   0  0  0  0  0
   -1.0100    1.7840    0.8930 H   0  0  0  0  0
  1  2  1  0  0  0
  1  8  1  0  0  0
  1  9  1  0  0  0
  1 10  1  0  0  0
  2  3  1  0  0  0
  2 11  1  0  0  0
  2 12  1  0  0  0
  3  4  1  0  0  0
  3 13  1  0  0  0
  3 14  1  0  0  0
  4  5  1  0  0  0
  5  6  2  0  0  0
  5  7  1  0  0  0
  7 15  1  0  0  0
  7 16  1  0  0  0
  7 17  1  0  0  0
  8 18  1  0  0  0
  8 19  1  0  0  0
  8 20  1  0  0  0
  9 21  1  0  0  0
  9 22  1  0  0  0
  9 23  1  0  0  0
 10 24  1  0  0  0
 10 25  1  0  0  0
 10 26  1  0  0  0
M  CHG  1   1   1
M  END
$$$$
