AD4
  CCTOOLS-0919241028

137139  0  0  1  0  0  0  0  0999 V2000
    0.5110   -3.0900   -5.3550 C   0  0  0  0  0
   -0.1350   -2.6500   -4.0470 C   0  0  0  0  0
    0.0400   -1.1590   -3.6850 C   0  0  0  0  0
   -0.9160   -0.1680   -4.3750 C   0  0  0  0  0
   -0.4750    1.3050   -4.2680 C   0  0  0  0  0
   -0.3660    1.9950   -2.8790 C   0  0  0  0  0
    0.6220    1.2620   -1.9090 C   0  0  0  0  0
    0.9700    2.0830   -0.6260 C   0  0  0  0  0
    2.4180    2.0250   -0.4750 O   0  0  0  0  0
    3.2750    2.9880   -0.9020 C   0  0  0  0  0
    4.3820    2.6860   -1.3410 O   0  0  0  0  0
    2.7820    4.4190   -0.8410 C   0  0  0  0  0
    3.8070    5.3960   -0.2540 C   0  0  0  0  0
    4.3280    6.4690   -1.2220 C   0  0  0  0  0
    5.8410    6.4950   -1.4690 C   0  0  0  0  0
    6.3310    5.5790   -2.5960 C   0  0  0  0  0
    7.2050    6.2220   -3.6710 C   0  0  0  0  0
    8.5830    5.5920   -3.7910 C   0  0  0  0  0
    0.3210    1.3530    0.5570 C   0  0  0  0  0
   -0.9080    2.0200    0.9010 O   0  0  0  0  0
   -0.8450    3.0850    1.7420 C   0  0  0  0  0
    0.1570    3.5880    2.2260 O   0  0  0  0  0
   -2.2250    3.5550    2.0050 C   0  0  0  0  0
   -3.0910    3.8370    0.8150 C   0  0  0  0  0
   -2.6420    3.7490    3.2690 C   0  0  0  0  0
   -1.9030    3.4710    4.5390 C   0  0  0  0  0
    0.0000    0.0000    0.0000 C   0  0  0  0  0
   -0.4890   -1.0720    0.9170 C   0  0  0  0  0
    0.1660   -0.0590   -1.3330 C   0  0  0  0  0
   -0.1720   -1.2440   -2.1770 C   0  0  0  0  0
    0.5890   -2.4080   -1.8110 O   0  0  0  0  0
    0.5120   -3.3140   -2.8410 C   0  0  0  0  0
    0.9030   -4.4690   -2.7740 O   0  0  0  0  0
   -1.7360    2.2510   -2.2330 C   0  0  0  0  0
    0.2950    3.2970   -3.1130 O   0  0  0  0  0
    0.5870    3.7820   -4.3500 C   0  0  0  0  0
   -0.0170    3.5680   -5.3910 O   0  0  0  0  0
    1.8030    4.6550   -4.2590 C   0  0  0  0  0
   -2.2560   -0.3230   -3.8600 O   0  0  0  0  0
   -3.0680   -1.2580   -4.4210 C   0  0  0  0  0
   -3.0430   -1.6160   -5.5930 O   0  0  0  0  0
   -4.0910   -1.7770   -3.4300 C   0  0  0  0  0
   -4.6880   -3.1500   -3.7580 C   0  0  0  0  0
   -5.1060   -3.9170   -2.5000 C   0  0  0  0  0
    1.4000   -0.8060   -3.9660 O   0  0  0  0  0
   -1.4980   -3.0430   -4.0330 O   0  0  0  0  0
   -9.6870   -3.4650   -5.0480 C   0  0  0  0  0
   -9.9270   -2.7270   -3.7240 C   0  0  0  0  0
   -9.5130   -1.2620   -3.8920 C   0  0  0  0  0
  -11.4030   -2.8670   -3.3410 C   0  0  0  0  0
   -9.0690   -3.3970   -2.7590 O   0  0  0  0  0
   -9.0180   -3.0230   -1.4480 C   0  0  0  0  0
   -9.6770   -2.1230   -0.9410 O   0  0  0  0  0
   -8.1030   -3.8120   -0.7830 N   0  0  0  0  0
   -7.7910   -3.6750    0.6290 C   0  0  0  0  0
   -7.6070   -5.0310    1.3110 C   0  0  0  0  0
   -6.3400   -5.0960    2.1690 C   0  0  0  0  0
   -5.3850   -6.2240    1.7620 C   0  0  0  0  0
   -3.9830   -5.7830    1.3260 C   0  0  0  0  0
   -3.6060   -6.2590   -0.0770 C   0  0  0  0  0
   -3.3720   -5.0820   -1.0270 C   0  0  0  0  0
   -4.2860   -5.1830   -2.2480 C   0  0  0  0  0
    0.3090   -4.1490   -5.5530 H   0  0  0  0  0
    1.5980   -2.9630   -5.3480 H   0  0  0  0  0
    0.0960   -2.5310   -6.2000 H   0  0  0  0  0
   -0.9130   -0.4150   -5.4460 H   0  0  0  0  0
   -1.1760    1.8880   -4.8790 H   0  0  0  0  0
    0.4880    1.4230   -4.7840 H   0  0  0  0  0
    1.5640    1.1120   -2.4530 H   0  0  0  0  0
    0.6530    3.1260   -0.7090 H   0  0  0  0  0
    2.5590    4.7280   -1.8690 H   0  0  0  0  0
    1.8640    4.4820   -0.2580 H   0  0  0  0  0
    3.3590    5.9070    0.6080 H   0  0  0  0  0
    4.6460    4.8170    0.1430 H   0  0  0  0  0
    3.9980    7.4520   -0.8660 H   0  0  0  0  0
    3.8340    6.3270   -2.1910 H   0  0  0  0  0
    6.2160    7.5110   -1.6070 H   0  0  0  0  0
    6.3210    6.1320   -0.5490 H   0  0  0  0  0
    5.4630    5.1180   -3.0820 H   0  0  0  0  0
    6.8950    4.7540   -2.1410 H   0  0  0  0  0
    7.2970    7.2990   -3.4970 H   0  0  0  0  0
    6.6930    6.1150   -4.6360 H   0  0  0  0  0
    8.5090    4.5130   -3.9570 H   0  0  0  0  0
    9.1240    6.0290   -4.6370 H   0  0  0  0  0
    9.1820    5.7620   -2.8930 H   0  0  0  0  0
    1.0040    1.2800    1.4110 H   0  0  0  0  0
   -3.4020    2.9040    0.3350 H   0  0  0  0  0
   -2.5500    4.4410    0.0790 H   0  0  0  0  0
   -3.9960    4.3890    1.0890 H   0  0  0  0  0
   -3.6520    4.1280    3.4170 H   0  0  0  0  0
   -1.6350    4.4120    5.0310 H   0  0  0  0  0
   -2.5480    2.9040    5.2180 H   0  0  0  0  0
   -0.9960    2.8820    4.3950 H   0  0  0  0  0
   -0.7080   -2.0090    0.4000 H   0  0  0  0  0
   -1.4100   -0.7580    1.4160 H   0  0  0  0  0
    0.2650   -1.2840    1.6820 H   0  0  0  0  0
   -1.2200   -1.4910   -1.9550 H   0  0  0  0  0
   -1.6770    3.0480   -1.4860 H   0  0  0  0  0
   -2.1410    1.3610   -1.7540 H   0  0  0  0  0
   -2.4750    2.5790   -2.9710 H   0  0  0  0  0
    1.6110    5.4870   -3.5780 H   0  0  0  0  0
    2.0330    5.0610   -5.2480 H   0  0  0  0  0
    2.6570    4.0650   -3.9160 H   0  0  0  0  0
   -3.6450   -1.7600   -2.4300 H   0  0  0  0  0
   -4.9130   -1.0500   -3.4390 H   0  0  0  0  0
   -5.5770   -2.9950   -4.3800 H   0  0  0  0  0
   -3.9830   -3.7440   -4.3490 H   0  0  0  0  0
   -4.9860   -3.2760   -1.6250 H   0  0  0  0  0
   -6.1710   -4.1700   -2.5560 H   0  0  0  0  0
    1.4890   -0.6910   -4.9280 H   0  0  0  0  0
   -1.5450   -3.9950   -4.2260 H   0  0  0  0  0
   -9.9160   -4.5320   -4.9480 H   0  0  0  0  0
  -10.2960   -3.0540   -5.8600 H   0  0  0  0  0
   -8.6340   -3.4010   -5.3410 H   0  0  0  0  0
   -9.7140   -0.6760   -2.9890 H   0  0  0  0  0
   -8.4370   -1.1810   -4.0840 H   0  0  0  0  0
  -10.0510   -0.7870   -4.7200 H   0  0  0  0  0
  -11.6530   -3.9130   -3.1330 H   0  0  0  0  0
  -12.0580   -2.5040   -4.1410 H   0  0  0  0  0
  -11.6460   -2.3000   -2.4370 H   0  0  0  0  0
   -7.6150   -4.5280   -1.3120 H   0  0  0  0  0
   -6.8990   -3.0510    0.7530 H   0  0  0  0  0
   -8.6380   -3.1500    1.0830 H   0  0  0  0  0
   -8.4770   -5.2190    1.9530 H   0  0  0  0  0
   -7.5910   -5.8160    0.5480 H   0  0  0  0  0
   -5.8080   -4.1390    2.1390 H   0  0  0  0  0
   -6.6260   -5.2530    3.2160 H   0  0  0  0  0
   -5.2890   -6.9150    2.6090 H   0  0  0  0  0
   -5.8380   -6.7980    0.9450 H   0  0  0  0  0
   -3.9440   -4.6870    1.3570 H   0  0  0  0  0
   -3.2400   -6.1370    2.0500 H   0  0  0  0  0
   -4.4000   -6.9020   -0.4760 H   0  0  0  0  0
   -2.6920   -6.8620   -0.0330 H   0  0  0  0  0
   -2.3240   -5.0770   -1.3520 H   0  0  0  0  0
   -3.5540   -4.1410   -0.4940 H   0  0  0  0  0
   -3.6720   -5.3670   -3.1380 H   0  0  0  0  0
   -4.9560   -6.0450   -2.1440 H   0  0  0  0  0
  1  2  1  0  0  0
  1 63  1  0  0  0
  1 64  1  0  0  0
  1 65  1  0  0  0
  2  3  1  0  0  0
  2 32  1  0  0  0
  2 46  1  0  0  0
  3  4  1  0  0  0
  3 30  1  0  0  0
  3 45  1  0  0  0
  4  5  1  0  0  0
  4 39  1  0  0  0
  4 66  1  0  0  0
  5  6  1  0  0  0
  5 67  1  0  0  0
  5 68  1  0  0  0
  6  7  1  0  0  0
  6 34  1  0  0  0
  6 35  1  0  0  0
  7  8  1  0  0  0
  7 29  1  0  0  0
  7 69  1  0  0  0
  8  9  1  0  0  0
  8 19  1  0  0  0
  8 70  1  0  0  0
  9 10  1  0  0  0
 10 11  2  0  0  0
 10 12  1  0  0  0
 12 13  1  0  0  0
 12 71  1  0  0  0
 12 72  1  0  0  0
 13 14  1  0  0  0
 13 73  1  0  0  0
 13 74  1  0  0  0
 14 15  1  0  0  0
 14 75  1  0  0  0
 14 76  1  0  0  0
 15 16  1  0  0  0
 15 77  1  0  0  0
 15 78  1  0  0  0
 16 17  1  0  0  0
 16 79  1  0  0  0
 16 80  1  0  0  0
 17 18  1  0  0  0
 17 81  1  0  0  0
 17 82  1  0  0  0
 18 83  1  0  0  0
 18 84  1  0  0  0
 18 85  1  0  0  0
 19 20  1  0  0  0
 19 27  1  0  0  0
 19 86  1  0  0  0
 20 21  1  0  0  0
 21 22  2  0  0  0
 21 23  1  0  0  0
 23 24  1  0  0  0
 23 25  2  0  0  0
 24 87  1  0  0  0
 24 88  1  0  0  0
 24 89  1  0  0  0
 25 26  1  0  0  0
 25 90  1  0  0  0
 26 91  1  0  0  0
 26 92  1  0  0  0
 26 93  1  0  0  0
 27 28  1  0  0  0
 27 29  2  0  0  0
 28 94  1  0  0  0
 28 95  1  0  0  0
 28 96  1  0  0  0
 29 30  1  0  0  0
 30 31  1  0  0  0
 30 97  1  0  0  0
 31 32  1  0  0  0
 32 33  2  0  0  0
 34 98  1  0  0  0
 34 99  1  0  0  0
 34100  1  0  0  0
 35 36  1  0  0  0
 36 37  2  0  0  0
 36 38  1  0  0  0
 38101  1  0  0  0
 38102  1  0  0  0
 38103  1  0  0  0
 39 40  1  0  0  0
 40 41  2  0  0  0
 40 42  1  0  0  0
 42 43  1  0  0  0
 42104  1  0  0  0
 42105  1  0  0  0
 43 44  1  0  0  0
 43106  1  0  0  0
 43107  1  0  0  0
 44 62  1  0  0  0
 44108  1  0  0  0
 44109  1  0  0  0
 45110  1  0  0  0
 46111  1  0  0  0
 47 48  1  0  0  0
 47112  1  0  0  0
 47113  1  0  0  0
 47114  1  0  0  0
 48 49  1  0  0  0
 48 50  1  0  0  0
 48 51  1  0  0  0
 49115  1  0  0  0
 49116  1  0  0  0
 49117  1  0  0  0
 50118  1  0  0  0
 50119  1  0  0  0
 50120  1  0  0  0
 51 52  1  0  0  0
 52 53  2  0  0  0
 52 54  1  0  0  0
 54 55  1  0  0  0
 54121  1  0  0  0
 55 56  1  0  0  0
 55122  1  0  0  0
 55123  1  0  0  0
 56 57  1  0  0  0
 56124  1  0  0  0
 56125  1  0  0  0
 57 58  1  0  0  0
 57126  1  0  0  0
 57127  1  0  0  0
 58 59  1  0  0  0
 58128  1  0  0  0
 58129  1  0  0  0
 59 60  1  0  0  0
 59130  1  0  0  0
 59131  1  0  0  0
 60 61  1  0  0  0
 60132  1  0  0  0
 60133  1  0  0  0
 61 62  1  0  0  0
 61134  1  0  0  0
 61135  1  0  0  0
 62136  1  0  0  0
 62137  1  0  0  0
M  END
$$$$
