ADV
  CCTOOLS-0919241028

 61 64  0  0  1  0  0  0  0  0999 V2000
   -1.3100    0.4040   -0.6870 P   0  0  0  0  0
   -1.1290   -0.3810    0.7050 O   0  0  0  0  0
   -1.9880    0.2550    1.6530 C   0  0  0  0  0
   -1.8620   -0.4460    3.0070 C   0  0  0  0  0
   -0.5080   -0.3480    3.5010 O   0  0  0  0  0
   -2.7230    0.2710    4.0700 C   0  0  0  0  0
   -3.9720   -0.4010    4.2410 O   0  0  0  0  0
   -1.8770    0.1810    5.3620 C   0  0  0  0  0
   -2.5790   -0.5470    6.3710 O   0  0  0  0  0
   -0.6050   -0.5760    4.9240 C   0  0  0  0  0
    0.5720   -0.0360    5.6080 N   0  0  0  0  0
    1.3480    0.9990    5.1800 C   0  0  0  0  0
    2.3090    1.2140    6.0310 N   0  0  0  0  0
    2.2070    0.3380    7.0580 C   0  0  0  0  0
    2.9470    0.0960    8.2280 C   0  0  0  0  0
    4.0560    0.8640    8.5360 N   0  0  0  0  0
    2.5530   -0.8830    9.0350 N   0  0  0  0  0
    1.4960   -1.6210    8.7490 C   0  0  0  0  0
    0.7770   -1.4350    7.6630 N   0  0  0  0  0
    1.0940   -0.4790    6.7960 C   0  0  0  0  0
   -0.2410   -0.3510   -1.9560 C   0  0  0  0  0
   -0.4470    0.5380   -3.5330 P   0  0  0  0  0
   -0.0700    1.9580   -3.3520 O   0  0  0  0  0
    0.4960   -0.1290   -4.6530 O   0  0  0  0  0
    0.2910    0.6080   -5.8600 C   0  0  0  0  0
    1.1640    0.0210   -6.9710 C   0  0  0  0  0
    0.7900   -1.3390   -7.2150 O   0  0  0  0  0
    0.9450    0.8090   -8.2800 C   0  0  0  0  0
    2.0050    1.7400   -8.5050 O   0  0  0  0  0
    0.9630   -0.3180   -9.3490 C   0  0  0  0  0
    2.3000   -0.6420   -9.7330 O   0  0  0  0  0
    0.3100   -1.4820   -8.5620 C   0  0  0  0  0
    0.7180   -2.7400   -9.1030 O   0  0  0  0  0
   -2.8480    0.3140   -1.1580 O   0  0  0  0  0
   -1.9840    0.4480   -4.0040 O   0  0  0  0  0
   -0.9330    1.8240   -0.5060 O   0  0  0  0  0
   -3.0190    0.1940    1.3070 H   0  0  0  0  0
   -1.7000    1.3010    1.7590 H   0  0  0  0  0
   -2.1600   -1.4910    2.9200 H   0  0  0  0  0
   -2.8860    1.3110    3.7900 H   0  0  0  0  0
   -4.4640    0.0890    4.9130 H   0  0  0  0  0
   -1.6210    1.1780    5.7210 H   0  0  0  0  0
   -3.3910   -0.0550    6.5570 H   0  0  0  0  0
   -0.7080   -1.6410    5.1310 H   0  0  0  0  0
    1.1900    1.5570    4.2690 H   0  0  0  0  0
    4.5560    0.6900    9.3490 H   0  0  0  0  0
    4.3360    1.5740    7.9370 H   0  0  0  0  0
    1.2110   -2.4070    9.4330 H   0  0  0  0  0
    0.7980   -0.2900   -1.6370 H   0  0  0  0  0
   -0.5190   -1.3960   -2.0890 H   0  0  0  0  0
   -0.7570    0.5450   -6.1500 H   0  0  0  0  0
    0.5610    1.6510   -5.6980 H   0  0  0  0  0
    2.2130    0.0700   -6.6810 H   0  0  0  0  0
   -0.0190    1.3180   -8.2690 H   0  0  0  0  0
    1.8540    2.1310   -9.3770 H   0  0  0  0  0
    0.3620   -0.0470  -10.2180 H   0  0  0  0  0
    2.2460   -1.4170  -10.3090 H   0  0  0  0  0
   -0.7750   -1.3940   -8.5870 H   0  0  0  0  0
    0.3200   -3.4250   -8.5490 H   0  0  0  0  0
   -3.0530   -0.6240   -1.2640 H   0  0  0  0  0
   -2.1890   -0.4910   -4.1100 H   0  0  0  0  0
  1  2  1  0  0  0
  1 21  1  0  0  0
  1 34  1  0  0  0
  1 36  2  0  0  0
  2  3  1  0  0  0
  3  4  1  0  0  0
  3 37  1  0  0  0
  3 38  1  0  0  0
  4  5  1  0  0  0
  4  6  1  0  0  0
  4 39  1  0  0  0
  5 10  1  0  0  0
  6  7  1  0  0  0
  6  8  1  0  0  0
  6 40  1  0  0  0
  7 41  1  0  0  0
  8  9  1  0  0  0
  8 10  1  0  0  0
  8 42  1  0  0  0
  9 43  1  0  0  0
 10 11  1  0  0  0
 10 44  1  0  0  0
 11 12  1  0  0  0
 11 20  1  0  0  0
 12 13  2  0  0  0
 12 45  1  0  0  0
 13 14  1  0  0  0
 14 15  2  0  0  0
 14 20  1  0  0  0
 15 16  1  0  0  0
 15 17  1  0  0  0
 16 46  1  0  0  0
 16 47  1  0  0  0
 17 18  2  0  0  0
 18 19  1  0  0  0
 18 48  1  0  0  0
 19 20  2  0  0  0
 21 22  1  0  0  0
 21 49  1  0  0  0
 21 50  1  0  0  0
 22 23  2  0  0  0
 22 24  1  0  0  0
 22 35  1  0  0  0
 24 25  1  0  0  0
 25 26  1  0  0  0
 25 51  1  0  0  0
 25 52  1  0  0  0
 26 27  1  0  0  0
 26 28  1  0  0  0
 26 53  1  0  0  0
 27 32  1  0  0  0
 28 29  1  0  0  0
 28 30  1  0  0  0
 28 54  1  0  0  0
 29 55  1  0  0  0
 30 31  1  0  0  0
 30 32  1  0  0  0
 30 56  1  0  0  0
 31 57  1  0  0  0
 32 33  1  0  0  0
 32 58  1  0  0  0
 33 59  1  0  0  0
 34 60  1  0  0  0
 35 61  1  0  0  0
M  END
$$$$
