ADX
  CCTOOLS-0919241028

 41 43  0  0  1  0  0  0  0  0999 V2000
    1.1200   -0.2800   -5.6460 S   0  0  0  0  0
    1.5590   -1.3230   -6.5060 O   0  0  0  0  0
   -0.0130    0.5460   -5.8680 O   0  0  0  0  0
    2.3030    0.6670   -5.5090 O   0  0  0  0  0
   -0.1280    0.0120   -3.4830 P   0  0  0  0  0
    0.4570    1.3630   -3.3300 O   0  0  0  0  0
   -1.5120    0.1170   -4.2990 O   0  0  0  0  0
    0.8990   -0.9300   -4.2880 O   0  0  0  0  0
   -0.4090   -0.6180   -2.0290 O   0  0  0  0  0
   -1.3230    0.2580   -1.3670 C   0  0  0  0  0
   -1.6340   -0.2860    0.0270 C   0  0  0  0  0
   -0.4290   -0.3500    0.8210 O   0  0  0  0  0
   -2.5600    0.6850    0.7930 C   0  0  0  0  0
   -3.9180    0.2500    0.7120 O   0  0  0  0  0
   -2.0530    0.6150    2.2520 C   0  0  0  0  0
   -3.0850    0.1380    3.1180 O   0  0  0  0  0
   -0.8800   -0.3860    2.1930 C   0  0  0  0  0
    0.1950    0.0330    3.0940 N   0  0  0  0  0
    1.2270    0.8690    2.7840 C   0  0  0  0  0
    1.9980    1.0260    3.8200 N   0  0  0  0  0
    1.5090    0.3080    4.8600 C   0  0  0  0  0
    1.9130    0.0920    6.1880 C   0  0  0  0  0
    3.0490    0.7020    6.6910 N   0  0  0  0  0
    1.1750   -0.7050    6.9530 N   0  0  0  0  0
    0.0890   -1.2900    6.4820 C   0  0  0  0  0
   -0.3230   -1.1220    5.2430 N   0  0  0  0  0
    0.3500   -0.3410    4.4050 C   0  0  0  0  0
    2.4360    1.0750   -6.3760 H   0  0  0  0  0
   -1.8600   -0.7810   -4.3770 H   0  0  0  0  0
   -2.2450    0.3250   -1.9450 H   0  0  0  0  0
   -0.8770    1.2490   -1.2800 H   0  0  0  0  0
   -2.0940   -1.2710   -0.0440 H   0  0  0  0  0
   -2.4600    1.6970    0.4000 H   0  0  0  0  0
   -4.4470    0.8910    1.2050 H   0  0  0  0  0
   -1.7020    1.5930    2.5820 H   0  0  0  0  0
   -3.8110    0.7740    3.0650 H   0  0  0  0  0
   -1.2220   -1.3880    2.4540 H   0  0  0  0  0
    1.3810    1.3320    1.8210 H   0  0  0  0  0
    3.3150    0.5480    7.6110 H   0  0  0  0  0
    3.5820    1.2790    6.1220 H   0  0  0  0  0
   -0.4810   -1.9310    7.1370 H   0  0  0  0  0
  1  2  2  0  0  0
  1  3  2  0  0  0
  1  4  1  0  0  0
  1  8  1  0  0  0
  4 28  1  0  0  0
  5  6  2  0  0  0
  5  7  1  0  0  0
  5  8  1  0  0  0
  5  9  1  0  0  0
  7 29  1  0  0  0
  9 10  1  0  0  0
 10 11  1  0  0  0
 10 30  1  0  0  0
 10 31  1  0  0  0
 11 12  1  0  0  0
 11 13  1  0  0  0
 11 32  1  0  0  0
 12 17  1  0  0  0
 13 14  1  0  0  0
 13 15  1  0  0  0
 13 33  1  0  0  0
 14 34  1  0  0  0
 15 16  1  0  0  0
 15 17  1  0  0  0
 15 35  1  0  0  0
 16 36  1  0  0  0
 17 18  1  0  0  0
 17 37  1  0  0  0
 18 19  1  0  0  0
 18 27  1  0  0  0
 19 20  2  0  0  0
 19 38  1  0  0  0
 20 21  1  0  0  0
 21 22  1  0  0  0
 21 27  2  0  0  0
 22 23  1  0  0  0
 22 24  2  0  0  0
 23 39  1  0  0  0
 23 40  1  0  0  0
 24 25  1  0  0  0
 25 26  2  0  0  0
 25 41  1  0  0  0
 26 27  1  0  0  0
M  END
$$$$
