AEJ
  CCTOOLS-0919241028

 66 71  0  0  1  0  0  0  0  0999 V2000
   -4.1930    5.2120    0.3420 O   0  0  0  0  0
   -3.8320    3.9130    0.1710 C   0  0  0  0  0
   -2.8100    3.5840   -0.7080 C   0  0  0  0  0
   -2.4490    2.2630   -0.8780 C   0  0  0  0  0
   -3.1010    1.2610   -0.1750 C   0  0  0  0  0
   -4.1160    1.5880    0.7000 C   0  0  0  0  0
   -4.4790    2.9120    0.8780 C   0  0  0  0  0
   -2.6790   -0.1680   -0.3910 C   0  0  0  0  0
   -3.0970   -1.0080    0.7340 N   0  0  0  0  0
   -2.8710   -2.3320    0.3510 C   0  0  0  0  0
   -2.0220   -3.1380    1.0990 C   0  0  0  0  0
   -1.8010   -4.4470    0.7170 C   0  0  0  0  0
   -2.4250   -4.9560   -0.4070 C   0  0  0  0  0
   -3.2710   -4.1560   -1.1540 C   0  0  0  0  0
   -3.5000   -2.8480   -0.7750 C   0  0  0  0  0
   -4.5520   -0.8480    0.8620 C   0  0  0  0  0
   -4.8430    0.5210    1.4800 C   0  0  0  0  0
   -1.1790   -0.2270   -0.5230 C   0  0  0  0  0
   -0.6000   -0.3130   -1.7760 C   0  0  0  0  0
    0.7750   -0.3680   -1.9000 C   0  0  0  0  0
    1.5750   -0.3360   -0.7650 C   0  0  0  0  0
    0.9900   -0.2500    0.4910 C   0  0  0  0  0
   -0.3850   -0.1900    0.6090 C   0  0  0  0  0
    2.9660   -0.3920   -0.8880 N   0  0  0  0  0
    3.3800    0.8480   -1.5570 C   0  0  0  0  0
    4.9060    0.9090   -1.6200 C   0  0  0  0  0
    5.4590    0.9550   -0.2600 N   0  0  0  0  0
    5.0390   -0.2760    0.4170 C   0  0  0  0  0
    3.5110   -0.3410    0.4740 C   0  0  0  0  0
    5.5960   -0.2980    1.8430 C   0  0  0  0  0
    7.1260   -0.2780    1.7880 C   0  0  0  0  0
    7.5760    0.9420    0.9790 C   0  0  0  0  0
    6.9190    0.8990   -0.4020 C   0  0  0  0  0
   -4.8830    5.3980   -0.3090 H   0  0  0  0  0
   -2.2990    4.3600   -1.2580 H   0  0  0  0  0
   -1.6530    2.0080   -1.5630 H   0  0  0  0  0
   -5.2720    3.1660    1.5670 H   0  0  0  0  0
   -3.1350   -0.5420   -1.3070 H   0  0  0  0  0
   -1.5340   -2.7410    1.9770 H   0  0  0  0  0
   -1.1410   -5.0740    1.2980 H   0  0  0  0  0
   -2.2500   -5.9800   -0.7030 H   0  0  0  0  0
   -3.7560   -4.5570   -2.0310 H   0  0  0  0  0
   -4.1610   -2.2240   -1.3580 H   0  0  0  0  0
   -5.0150   -0.9100   -0.1230 H   0  0  0  0  0
   -4.9510   -1.6310    1.5060 H   0  0  0  0  0
   -5.9150    0.7140    1.4480 H   0  0  0  0  0
   -4.5020    0.5330    2.5150 H   0  0  0  0  0
   -1.2220   -0.3380   -2.6570 H   0  0  0  0  0
    1.2270   -0.4350   -2.8790 H   0  0  0  0  0
    1.6100   -0.2250    1.3760 H   0  0  0  0  0
   -0.8400   -0.1220    1.5850 H   0  0  0  0  0
    2.9740    0.8680   -2.5680 H   0  0  0  0  0
    3.0050    1.7050   -0.9970 H   0  0  0  0  0
    5.2830    0.0250   -2.1350 H   0  0  0  0  0
    5.2110    1.8020   -2.1650 H   0  0  0  0  0
    5.4180   -1.1370   -0.1340 H   0  0  0  0  0
    3.1300    0.5440    0.9840 H   0  0  0  0  0
    3.2060   -1.2330    1.0200 H   0  0  0  0  0
    5.2610   -1.2030    2.3500 H   0  0  0  0  0
    5.2390    0.5770    2.3860 H   0  0  0  0  0
    7.4860   -1.1880    1.3080 H   0  0  0  0  0
    7.5270   -0.2130    2.8000 H   0  0  0  0  0
    8.6610    0.9250    0.8660 H   0  0  0  0  0
    7.2770    1.8540    1.4960 H   0  0  0  0  0
    7.1980   -0.0260   -0.9070 H   0  0  0  0  0
    7.2590    1.7500   -0.9920 H   0  0  0  0  0
  1  2  1  0  0  0
  1 34  1  0  0  0
  2  3  2  0  0  0
  2  7  1  0  0  0
  3  4  1  0  0  0
  3 35  1  0  0  0
  4  5  2  0  0  0
  4 36  1  0  0  0
  5  6  1  0  0  0
  5  8  1  0  0  0
  6  7  2  0  0  0
  6 17  1  0  0  0
  7 37  1  0  0  0
  8  9  1  0  0  0
  8 18  1  0  0  0
  8 38  1  0  0  0
  9 10  1  0  0  0
  9 16  1  0  0  0
 10 11  2  0  0  0
 10 15  1  0  0  0
 11 12  1  0  0  0
 11 39  1  0  0  0
 12 13  2  0  0  0
 12 40  1  0  0  0
 13 14  1  0  0  0
 13 41  1  0  0  0
 14 15  2  0  0  0
 14 42  1  0  0  0
 15 43  1  0  0  0
 16 17  1  0  0  0
 16 44  1  0  0  0
 16 45  1  0  0  0
 17 46  1  0  0  0
 17 47  1  0  0  0
 18 19  2  0  0  0
 18 23  1  0  0  0
 19 20  1  0  0  0
 19 48  1  0  0  0
 20 21  2  0  0  0
 20 49  1  0  0  0
 21 22  1  0  0  0
 21 24  1  0  0  0
 22 23  2  0  0  0
 22 50  1  0  0  0
 23 51  1  0  0  0
 24 25  1  0  0  0
 24 29  1  0  0  0
 25 26  1  0  0  0
 25 52  1  0  0  0
 25 53  1  0  0  0
 26 27  1  0  0  0
 26 54  1  0  0  0
 26 55  1  0  0  0
 27 28  1  0  0  0
 27 33  1  0  0  0
 28 29  1  0  0  0
 28 30  1  0  0  0
 28 56  1  0  0  0
 29 57  1  0  0  0
 29 58  1  0  0  0
 30 31  1  0  0  0
 30 59  1  0  0  0
 30 60  1  0  0  0
 31 32  1  0  0  0
 31 61  1  0  0  0
 31 62  1  0  0  0
 32 33  1  0  0  0
 32 63  1  0  0  0
 32 64  1  0  0  0
 33 65  1  0  0  0
 33 66  1  0  0  0
M  END
$$$$
