AEK
  CCTOOLS-0919241028

 49 52  0  0  0  0  0  0  0  0999 V2000
    1.8110    4.6300    0.2140 N   0  0  0  0  0
   -2.6030   -0.6920   -0.5250 N   0  0  0  0  0
    1.1300   -0.1460   -0.5630 C   0  0  0  0  0
   -0.2580   -0.3180   -1.1240 C   0  0  0  0  0
   -1.2500   -0.5240    0.0220 C   0  0  0  0  0
   -3.5840   -0.8930    0.5500 C   0  0  0  0  0
   -4.9780   -1.0640   -0.0580 C   0  0  0  0  0
   -7.0430   -0.2670    1.0390 C   0  0  0  0  0
    1.9470   -1.2560   -0.3670 C   0  0  0  0  0
    4.0800   -2.2830    0.3520 C   0  0  0  0  0
    3.7170    0.1840    0.4850 C   0  0  0  0  0
    0.5490    5.2360   -0.2160 C   0  0  0  0  0
    1.9830    3.2650    0.1340 C   0  0  0  0  0
    1.0450    2.3820   -0.3230 N   0  0  0  0  0
    1.5990    1.1160   -0.2460 C   0  0  0  0  0
   -5.9970   -1.4000    1.0460 C   0  0  0  0  0
   -6.9590    0.3190   -0.3930 C   0  0  0  0  0
   -5.4420    0.2610   -0.6970 C   0  0  0  0  0
    1.5220   -2.5090   -0.6720 N   0  0  0  0  0
    2.2790   -3.5470   -0.4920 C   0  0  0  0  0
    3.5410   -3.4760    0.0090 N   0  0  0  0  0
    5.2080   -2.2050    0.8020 O   0  0  0  0  0
    3.2500   -1.0840    0.1610 C   0  0  0  0  0
    2.8980    1.2900    0.2750 C   0  0  0  0  0
    3.0690    2.6230    0.4840 N   0  0  0  0  0
   -2.6330   -1.4520   -1.1890 H   0  0  0  0  0
   -0.5350    0.5730   -1.6880 H   0  0  0  0  0
   -0.2790   -1.1860   -1.7830 H   0  0  0  0  0
   -1.2300    0.3440    0.6810 H   0  0  0  0  0
   -0.9730   -1.4150    0.5860 H   0  0  0  0  0
   -3.3230   -1.7870    1.1170 H   0  0  0  0  0
   -3.5800   -0.0280    1.2120 H   0  0  0  0  0
   -4.9640   -1.8560   -0.8060 H   0  0  0  0  0
   -8.0400   -0.6660    1.2290 H   0  0  0  0  0
   -6.7900    0.4920    1.7790 H   0  0  0  0  0
    4.7120    0.3120    0.8880 H   0  0  0  0  0
   -0.2690    4.8320    0.3810 H   0  0  0  0  0
    0.5990    6.3160   -0.0790 H   0  0  0  0  0
   -6.4780   -2.3540    0.8320 H   0  0  0  0  0
   -5.4980   -1.4410    2.0140 H   0  0  0  0  0
   -7.5180   -0.2980   -1.0960 H   0  0  0  0  0
   -7.3180    1.3490   -0.4100 H   0  0  0  0  0
   -4.9280    1.1060   -0.2380 H   0  0  0  0  0
   -5.2690    0.2470   -1.7730 H   0  0  0  0  0
    1.8860   -4.5190   -0.7540 H   0  0  0  0  0
    4.0600   -4.2870    0.1220 H   0  0  0  0  0
    0.1560    2.6030   -0.6430 H   0  0  0  0  0
    2.5280    5.1910    0.5510 H   0  0  0  0  0
    0.3770    5.0100   -1.2680 H   0  0  0  0  0
  1 13  1  0  0  0
  1 48  1  0  0  0
  2  6  1  0  0  0
  2  5  1  0  0  0
  2 26  1  0  0  0
  3  9  1  0  0  0
  4  3  1  0  0  0
  4 27  1  0  0  0
  4 28  1  0  0  0
  5  4  1  0  0  0
  5 29  1  0  0  0
  5 30  1  0  0  0
  6 31  1  0  0  0
  6 32  1  0  0  0
  7  6  1  0  0  0
  7 16  1  0  0  0
  7 33  1  0  0  0
  8 16  1  0  0  0
  8 34  1  0  0  0
  8 35  1  0  0  0
  9 23  2  0  0  0
  9 19  1  0  0  0
 10 22  2  0  0  0
 10 21  1  0  0  0
 11 23  1  0  0  0
 11 36  1  0  0  0
 12  1  1  0  0  0
 12 37  1  0  0  0
 12 38  1  0  0  0
 12 49  1  0  0  0
 13 14  1  0  0  0
 13 25  2  0  0  0
 14 15  1  0  0  0
 14 47  1  0  0  0
 15  3  2  0  0  0
 15 24  1  0  0  0
 16 39  1  0  0  0
 16 40  1  0  0  0
 17  8  1  0  0  0
 17 18  1  0  0  0
 17 41  1  0  0  0
 17 42  1  0  0  0
 18  7  1  0  0  0
 18 43  1  0  0  0
 18 44  1  0  0  0
 19 20  2  0  0  0
 20 21  1  0  0  0
 20 45  1  0  0  0
 21 46  1  0  0  0
 23 10  1  0  0  0
 24 11  2  0  0  0
 25 24  1  0  0  0
M  END
$$$$
