AGA
  CCTOOLS-0919241028

 66 65  0  0  1  0  0  0  0  0999 V2000
    6.7840   -0.4930   -3.7000 O   0  0  0  0  0
    6.3750   -1.3600   -2.6400 C   0  0  0  0  0
    5.0650   -0.8470   -2.0380 C   0  0  0  0  0
    5.2900    0.4230   -1.4230 O   0  0  0  0  0
    4.5630   -1.8400   -0.9880 C   0  0  0  0  0
    2.4550   -2.2340    0.6060 P   0  0  0  0  0
    2.0560   -3.6170    0.0460 O   0  5  0  0  0
    3.3330   -2.4210    1.8640 O   0  0  0  0  0
    3.2830   -1.4210   -0.5100 O   0  0  0  0  0
    1.1280   -1.4090    0.9960 O   0  0  0  0  0
    0.2360   -1.8160    2.0360 C   0  0  0  0  0
   -0.9140   -0.8130    2.1420 C   0  0  0  0  0
   -0.3480    0.5940    2.3410 C   0  0  0  0  0
    0.5860    0.8950    1.2700 O   0  0  0  0  0
    1.1750    2.1010    1.2980 C   0  0  0  0  0
    0.9190    2.8790    2.1860 O   0  0  0  0  0
    2.1560    2.4850    0.2200 C   0  0  0  0  0
    2.6770    3.8990    0.4840 C   0  0  0  0  0
    3.6730    4.2880   -0.6100 C   0  0  0  0  0
    4.1940    5.7020   -0.3460 C   0  0  0  0  0
   -1.7030   -0.8500    0.9230 O   0  0  0  0  0
   -3.0090   -0.5610    1.0330 C   0  0  0  0  0
   -3.4780   -0.2860    2.1120 O   0  0  0  0  0
   -3.8900   -0.5800   -0.1890 C   0  0  0  0  0
   -5.3220   -0.2170    0.2090 C   0  0  0  0  0
   -6.2170   -0.2350   -1.0320 C   0  0  0  0  0
   -7.6490    0.1280   -0.6340 C   0  0  0  0  0
   -8.5430    0.1090   -1.8750 C   0  0  0  0  0
   -9.9750    0.4720   -1.4770 C   0  0  0  0  0
  -10.8700    0.4540   -2.7180 C   0  0  0  0  0
    7.6090   -0.7590   -4.1290 H   0  0  0  0  0
    6.2260   -2.3670   -3.0300 H   0  0  0  0  0
    7.1460   -1.3800   -1.8690 H   0  0  0  0  0
    4.3200   -0.7430   -2.8260 H   0  0  0  0  0
    5.9430    0.4060   -0.7110 H   0  0  0  0  0
    4.4770   -2.8300   -1.4370 H   0  0  0  0  0
    5.2670   -1.8780   -0.1570 H   0  0  0  0  0
   -0.1620   -2.8040    1.8060 H   0  0  0  0  0
    0.7750   -1.8530    2.9830 H   0  0  0  0  0
   -1.5460   -1.0740    2.9910 H   0  0  0  0  0
   -1.1620    1.3180    2.3280 H   0  0  0  0  0
    0.1690    0.6460    3.2990 H   0  0  0  0  0
    2.9900    1.7840    0.2210 H   0  0  0  0  0
    1.6590    2.4560   -0.7500 H   0  0  0  0  0
    1.8420    4.6000    0.4830 H   0  0  0  0  0
    3.1740    3.9270    1.4540 H   0  0  0  0  0
    4.5070    3.5870   -0.6090 H   0  0  0  0  0
    3.1760    4.2600   -1.5800 H   0  0  0  0  0
    3.3590    6.4030   -0.3470 H   0  0  0  0  0
    4.6910    5.7310    0.6240 H   0  0  0  0  0
    4.9030    5.9800   -1.1250 H   0  0  0  0  0
   -3.5200    0.1450   -0.9150 H   0  0  0  0  0
   -3.8770   -1.5760   -0.6320 H   0  0  0  0  0
   -5.6920   -0.9410    0.9340 H   0  0  0  0  0
   -5.3350    0.7800    0.6510 H   0  0  0  0  0
   -5.8470    0.4890   -1.7580 H   0  0  0  0  0
   -6.2040   -1.2310   -1.4740 H   0  0  0  0  0
   -8.0190   -0.5970    0.0920 H   0  0  0  0  0
   -7.6610    1.1240   -0.1910 H   0  0  0  0  0
   -8.1730    0.8340   -2.6000 H   0  0  0  0  0
   -8.5310   -0.8870   -2.3170 H   0  0  0  0  0
  -10.3450   -0.2520   -0.7510 H   0  0  0  0  0
   -9.9880    1.4680   -1.0340 H   0  0  0  0  0
  -11.8900    0.7120   -2.4340 H   0  0  0  0  0
  -10.5000    1.1780   -3.4430 H   0  0  0  0  0
  -10.8570   -0.5430   -3.1600 H   0  0  0  0  0
  1  2  1  0  0  0
  1 31  1  0  0  0
  2  3  1  0  0  0
  2 32  1  0  0  0
  2 33  1  0  0  0
  3  4  1  0  0  0
  3  5  1  0  0  0
  3 34  1  0  0  0
  4 35  1  0  0  0
  5  9  1  0  0  0
  5 36  1  0  0  0
  5 37  1  0  0  0
  6  7  1  0  0  0
  6  8  2  0  0  0
  6  9  1  0  0  0
  6 10  1  0  0  0
 10 11  1  0  0  0
 11 12  1  0  0  0
 11 38  1  0  0  0
 11 39  1  0  0  0
 12 13  1  0  0  0
 12 21  1  0  0  0
 12 40  1  0  0  0
 13 14  1  0  0  0
 13 41  1  0  0  0
 13 42  1  0  0  0
 14 15  1  0  0  0
 15 16  2  0  0  0
 15 17  1  0  0  0
 17 18  1  0  0  0
 17 43  1  0  0  0
 17 44  1  0  0  0
 18 19  1  0  0  0
 18 45  1  0  0  0
 18 46  1  0  0  0
 19 20  1  0  0  0
 19 47  1  0  0  0
 19 48  1  0  0  0
 20 49  1  0  0  0
 20 50  1  0  0  0
 20 51  1  0  0  0
 21 22  1  0  0  0
 22 23  2  0  0  0
 22 24  1  0  0  0
 24 25  1  0  0  0
 24 52  1  0  0  0
 24 53  1  0  0  0
 25 26  1  0  0  0
 25 54  1  0  0  0
 25 55  1  0  0  0
 26 27  1  0  0  0
 26 56  1  0  0  0
 26 57  1  0  0  0
 27 28  1  0  0  0
 27 58  1  0  0  0
 27 59  1  0  0  0
 28 29  1  0  0  0
 28 60  1  0  0  0
 28 61  1  0  0  0
 29 30  1  0  0  0
 29 62  1  0  0  0
 29 63  1  0  0  0
 30 64  1  0  0  0
 30 65  1  0  0  0
 30 66  1  0  0  0
M  CHG  1   7  -1
M  END
$$$$
