AGP
  CCTOOLS-0919241028

 32 31  0  0  1  0  0  0  0  0999 V2000
   -0.5520    0.0860   -4.9350 C   0  0  0  0  0
    0.1600    0.6180   -6.0540 O   0  0  0  0  0
    0.1560    0.4890   -3.6410 C   0  0  0  0  0
    1.5250   -0.0410   -3.6460 N   0  0  0  0  0
   -0.6060   -0.0800   -2.4430 C   0  0  0  0  0
   -0.6480   -1.5050   -2.5390 O   0  0  0  0  0
    0.1010    0.3230   -1.1480 C   0  0  0  0  0
    1.4340   -0.1920   -1.1530 O   0  0  0  0  0
   -0.6610   -0.2460    0.0490 C   0  0  0  0  0
   -1.9940    0.2700    0.0540 O   0  0  0  0  0
    0.0460    0.1570    1.3430 C   0  0  0  0  0
   -0.6650   -0.3740    2.4620 O   0  0  0  0  0
    0.1300    0.0860    3.7830 P   0  0  0  0  0
    0.1730    1.5640    3.8420 O   0  0  0  0  0
   -0.6210   -0.4810    5.0880 O   0  0  0  0  0
    1.6320   -0.4930    3.7340 O   0  0  0  0  0
   -0.5830   -1.0010   -5.0080 H   0  0  0  0  0
   -1.5680    0.4790   -4.9310 H   0  0  0  0  0
   -0.3170    0.3410   -6.8470 H   0  0  0  0  0
    0.1870    1.5760   -3.5670 H   0  0  0  0  0
    1.4470   -1.0440   -3.7140 H   0  0  0  0  0
    1.9560    0.2750   -4.5020 H   0  0  0  0  0
   -1.6230    0.3130   -2.4390 H   0  0  0  0  0
    0.2680   -1.8120   -2.5390 H   0  0  0  0  0
    0.1330    1.4100   -1.0750 H   0  0  0  0  0
    1.3600   -1.1540   -1.2190 H   0  0  0  0  0
   -0.6930   -1.3330   -0.0240 H   0  0  0  0  0
   -1.9200    1.2320    0.1190 H   0  0  0  0  0
    1.0630   -0.2360    1.3390 H   0  0  0  0  0
    0.0780    1.2440    1.4160 H   0  0  0  0  0
   -0.1130   -0.1830    5.8550 H   0  0  0  0  0
    1.5580   -1.4560    3.6960 H   0  0  0  0  0
  1  2  1  0  0  0
  1  3  1  0  0  0
  1 17  1  0  0  0
  1 18  1  0  0  0
  2 19  1  0  0  0
  3  4  1  0  0  0
  3  5  1  0  0  0
  3 20  1  0  0  0
  4 21  1  0  0  0
  4 22  1  0  0  0
  5  6  1  0  0  0
  5  7  1  0  0  0
  5 23  1  0  0  0
  6 24  1  0  0  0
  7  8  1  0  0  0
  7  9  1  0  0  0
  7 25  1  0  0  0
  8 26  1  0  0  0
  9 10  1  0  0  0
  9 11  1  0  0  0
  9 27  1  0  0  0
 10 28  1  0  0  0
 11 12  1  0  0  0
 11 29  1  0  0  0
 11 30  1  0  0  0
 12 13  1  0  0  0
 13 14  2  0  0  0
 13 15  1  0  0  0
 13 16  1  0  0  0
 15 31  1  0  0  0
 16 32  1  0  0  0
M  END
$$$$
