AGS
  CCTOOLS-0919241028

 47 49  0  0  1  0  0  0  0  0999 V2000
   -5.6370   -2.1150    0.5860 P   0  0  0  0  0
   -7.3910   -1.5340    0.3470 S   0  0  0  0  0
   -5.5420   -2.9910    1.9340 O   0  0  0  0  0
   -5.1940   -3.0160   -0.6720 O   0  0  0  0  0
   -4.3040    0.3890   -0.2720 P   0  0  0  0  0
   -4.1990   -0.1010   -1.6640 O   0  0  0  0  0
   -5.4640    1.5010   -0.1800 O   0  0  0  0  0
   -4.6610   -0.8410    0.7050 O   0  0  0  0  0
   -1.8620    2.0500   -0.5260 P   0  0  0  0  0
   -1.7360    1.7110   -1.9610 O   0  0  0  0  0
   -2.4000    3.5610   -0.3770 O   0  0  0  0  0
   -2.9010    1.0390    0.1760 O   0  0  0  0  0
   -0.4240    1.9200    0.1850 O   0  0  0  0  0
    0.7380    2.6120   -0.2780 C   0  0  0  0  0
    1.9280    2.2660    0.6200 C   0  0  0  0  0
    2.2680    0.8780    0.4680 O   0  0  0  0  0
    3.1600    3.0890    0.1960 C   0  0  0  0  0
    3.6090    3.9110    1.2760 O   0  0  0  0  0
    4.2270    2.0230   -0.1530 C   0  0  0  0  0
    5.5140    2.4110    0.3310 O   0  0  0  0  0
    3.7020    0.7780    0.6070 C   0  0  0  0  0
    4.1950   -0.4530   -0.0160 N   0  0  0  0  0
    3.5780   -1.1610   -1.0040 C   0  0  0  0  0
    4.2950   -2.2000   -1.3210 N   0  0  0  0  0
    5.4140   -2.2250   -0.5580 C   0  0  0  0  0
    6.5230   -3.0830   -0.4580 C   0  0  0  0  0
    6.6270   -4.2020   -1.2660 N   0  0  0  0  0
    7.4690   -2.7940    0.4290 N   0  0  0  0  0
    7.3780   -1.7280    1.2040 C   0  0  0  0  0
    6.3580   -0.8980    1.1450 N   0  0  0  0  0
    5.3670   -1.1020    0.2840 C   0  0  0  0  0
   -6.1050   -3.7770    1.9330 H   0  0  0  0  0
   -4.2900   -3.3540   -0.6150 H   0  0  0  0  0
   -5.5890    1.8670    0.7060 H   0  0  0  0  0
   -2.5070    3.8520    0.5390 H   0  0  0  0  0
    0.9560    2.3110   -1.3020 H   0  0  0  0  0
    0.5580    3.6870   -0.2450 H   0  0  0  0  0
    1.6810    2.4760    1.6610 H   0  0  0  0  0
    2.9290    3.7000   -0.6770 H   0  0  0  0  0
    4.3830    4.4500    1.0640 H   0  0  0  0  0
    4.2570    1.8390   -1.2270 H   0  0  0  0  0
    5.8450    3.2350   -0.0500 H   0  0  0  0  0
    3.9900    0.8200    1.6570 H   0  0  0  0  0
    2.6340   -0.8980   -1.4570 H   0  0  0  0  0
    5.9300   -4.4020   -1.9100 H   0  0  0  0  0
    7.3980   -4.7860   -1.1880 H   0  0  0  0  0
    8.1690   -1.5310    1.9120 H   0  0  0  0  0
  1  2  2  0  0  0
  1  3  1  0  0  0
  1  4  1  0  0  0
  1  8  1  0  0  0
  3 32  1  0  0  0
  4 33  1  0  0  0
  5  6  2  0  0  0
  5  7  1  0  0  0
  5  8  1  0  0  0
  5 12  1  0  0  0
  7 34  1  0  0  0
  9 10  2  0  0  0
  9 11  1  0  0  0
  9 12  1  0  0  0
  9 13  1  0  0  0
 11 35  1  0  0  0
 13 14  1  0  0  0
 14 15  1  0  0  0
 14 36  1  0  0  0
 14 37  1  0  0  0
 15 16  1  0  0  0
 15 17  1  0  0  0
 15 38  1  0  0  0
 16 21  1  0  0  0
 17 18  1  0  0  0
 17 19  1  0  0  0
 17 39  1  0  0  0
 18 40  1  0  0  0
 19 20  1  0  0  0
 19 21  1  0  0  0
 19 41  1  0  0  0
 20 42  1  0  0  0
 21 22  1  0  0  0
 21 43  1  0  0  0
 22 23  1  0  0  0
 22 31  1  0  0  0
 23 24  2  0  0  0
 23 44  1  0  0  0
 24 25  1  0  0  0
 25 26  1  0  0  0
 25 31  2  0  0  0
 26 27  1  0  0  0
 26 28  2  0  0  0
 27 45  1  0  0  0
 27 46  1  0  0  0
 28 29  1  0  0  0
 29 30  2  0  0  0
 29 47  1  0  0  0
 30 31  1  0  0  0
M  END
$$$$
