AH0
  CCTOOLS-1004241125

 36 37  0  0  1  0  0  0  0  0999 V2000
    0.9880    0.4980    1.3670 C   0  0  0  0  0
    0.8390   -0.4400    0.1590 C   0  0  0  0  0
    2.1620   -0.7440   -0.3920 N   0  0  0  0  0
    2.8960   -1.7470    0.1320 C   0  0  0  0  0
    2.4600   -2.3970    1.0580 O   0  0  0  0  0
    4.2560   -2.0600   -0.4350 C   0  0  0  0  0
   -0.0120    0.2570   -0.9070 C   0  0  0  0  0
   -1.3560    0.3820   -0.4380 O   0  0  0  0  0
    0.5640    1.6500   -1.1850 C   0  0  0  0  0
    1.8380    1.5250   -1.8200 O   0  0  0  0  0
    0.7250    2.3880    0.1550 C   0  0  0  0  0
    1.7170    1.6650    0.9250 O   0  0  0  0  0
   -0.5670    2.1650    0.9740 C   0  0  0  0  0
   -0.3220    0.9690    1.7350 O   0  0  0  0  0
   -2.1910   -0.7310   -0.7630 C   0  0  0  0  0
   -2.8210   -0.5100   -2.1400 C   0  0  0  0  0
   -3.2800   -0.8620    0.2710 C   0  0  0  0  0
   -3.3890   -0.0310    1.1410 O   0  0  0  0  0
   -4.1270   -1.9020    0.2260 O   0  0  0  0  0
    1.4940    0.0020    2.1950 H   0  0  0  0  0
    0.3520   -1.3640    0.4720 H   0  0  0  0  0
    2.5110   -0.2250   -1.1330 H   0  0  0  0  0
    4.4750   -1.3770   -1.2550 H   0  0  0  0  0
    5.0100   -1.9450    0.3450 H   0  0  0  0  0
    4.2690   -3.0860   -0.8030 H   0  0  0  0  0
   -0.0010   -0.3310   -1.8240 H   0  0  0  0  0
   -0.1150    2.2050   -1.8320 H   0  0  0  0  0
    2.2610    2.3700   -2.0240 H   0  0  0  0  0
    0.9780    3.4410    0.0250 H   0  0  0  0  0
   -0.7440    3.0090    1.6400 H   0  0  0  0  0
   -1.4180    2.0220    0.3080 H   0  0  0  0  0
   -1.5930   -1.6420   -0.7790 H   0  0  0  0  0
   -3.3540    0.4410   -2.1480 H   0  0  0  0  0
   -2.0390   -0.4940   -2.8990 H   0  0  0  0  0
   -3.5190   -1.3190   -2.3550 H   0  0  0  0  0
   -4.8080   -1.9430    0.9100 H   0  0  0  0  0
  1  2  1  0  0  0
  1 12  1  0  0  0
  1 14  1  0  0  0
  1 20  1  0  0  0
  2  3  1  0  0  0
  2  7  1  0  0  0
  2 21  1  0  0  0
  3  4  1  0  0  0
  3 22  1  0  0  0
  4  5  2  0  0  0
  4  6  1  0  0  0
  6 23  1  0  0  0
  6 24  1  0  0  0
  6 25  1  0  0  0
  7  8  1  0  0  0
  7  9  1  0  0  0
  7 26  1  0  0  0
  8 15  1  0  0  0
  9 10  1  0  0  0
  9 11  1  0  0  0
  9 27  1  0  0  0
 10 28  1  0  0  0
 11 12  1  0  0  0
 11 13  1  0  0  0
 11 29  1  0  0  0
 13 14  1  0  0  0
 13 30  1  0  0  0
 13 31  1  0  0  0
 15 16  1  0  0  0
 15 17  1  0  0  0
 15 32  1  0  0  0
 16 33  1  0  0  0
 16 34  1  0  0  0
 16 35  1  0  0  0
 17 18  2  0  0  0
 17 19  1  0  0  0
 19 36  1  0  0  0
M  END
$$$$
