AHB
  CCTOOLS-1004241125

 18 17  0  0  1  0  0  0  0  0999 V2000
    0.1690    0.4150    1.6550 N   0  0  0  0  0
    0.4670   -0.4330    0.4930 C   0  0  0  0  0
   -0.4830   -0.0800   -0.6530 C   0  0  0  0  0
   -0.2310    1.2580   -1.0870 O   0  0  0  0  0
   -1.9080   -0.1940   -0.1770 C   0  0  0  0  0
   -2.6090    0.7940   -0.1200 O   0  0  0  0  0
   -2.4040   -1.3930    0.1860 N   0  0  0  0  0
    1.8900   -0.2010    0.0550 C   0  0  0  0  0
    2.4670    0.8080    0.3840 O   0  0  0  0  0
    2.5170   -1.1160   -0.7020 O   0  0  0  0  0
    0.2830    1.3910    1.4290 H   0  0  0  0  0
   -0.7590    0.2310    2.0070 H   0  0  0  0  0
    0.3360   -1.4800    0.7640 H   0  0  0  0  0
   -0.3220   -0.7670   -1.4840 H   0  0  0  0  0
   -0.3550    1.9250   -0.3970 H   0  0  0  0  0
   -1.8440   -2.1840    0.1400 H   0  0  0  0  0
   -3.3220   -1.4660    0.4920 H   0  0  0  0  0
    3.4290   -0.9230   -0.9580 H   0  0  0  0  0
  1  2  1  0  0  0
  1 11  1  0  0  0
  1 12  1  0  0  0
  2  3  1  0  0  0
  2  8  1  0  0  0
  2 13  1  0  0  0
  3  4  1  0  0  0
  3  5  1  0  0  0
  3 14  1  0  0  0
  4 15  1  0  0  0
  5  6  2  0  0  0
  5  7  1  0  0  0
  7 16  1  0  0  0
  7 17  1  0  0  0
  8  9  2  0  0  0
  8 10  1  0  0  0
 10 18  1  0  0  0
M  END
$$$$
