AHU
  CCTOOLS-0919241028

 31 32  0  0  1  0  0  0  0  0999 V2000
    1.2280    0.0350    3.0890 C   0  0  0  0  0
    2.3930   -0.9470    2.9670 C   0  0  0  0  0
    3.6250   -0.2230    2.9250 O   0  0  0  0  0
    1.2280    0.9130    1.9650 O   0  0  0  0  0
    0.2470    1.9200    2.2030 C   0  0  0  0  0
   -1.1500    1.2980    2.1810 C   0  0  0  0  0
   -1.2480    0.2500    3.2960 C   0  0  0  0  0
   -0.0890   -0.7400    3.1380 C   0  0  0  0  0
   -0.0740   -1.6390    4.2490 O   0  0  0  0  0
   -1.3820    0.6590    0.8830 N   0  0  0  0  0
   -0.3840    0.6450   -0.0520 C   0  0  0  0  0
   -2.5720    0.0860    0.6250 C   0  0  0  0  0
   -3.4440    0.1100    1.4720 O   0  0  0  0  0
   -2.8130   -0.5020   -0.5600 N   0  0  0  0  0
   -1.8570   -0.5370   -1.5090 C   0  0  0  0  0
   -2.0730   -1.0740   -2.5800 O   0  0  0  0  0
   -0.5980    0.0560   -1.2490 C   0  0  0  0  0
    0.9120    0.0210   -2.7000 I   0  0  0  0  0
    1.3390    0.6180    4.0040 H   0  0  0  0  0
    2.2830   -1.5300    2.0530 H   0  0  0  0  0
    2.3950   -1.6170    3.8270 H   0  0  0  0  0
    4.3320   -0.8780    2.8480 H   0  0  0  0  0
    0.4250    2.3770    3.1770 H   0  0  0  0  0
    0.3160    2.6840    1.4280 H   0  0  0  0  0
   -1.8980    2.0740    2.3440 H   0  0  0  0  0
   -1.1810    0.7410    4.2660 H   0  0  0  0  0
   -2.1960   -0.2800    3.2160 H   0  0  0  0  0
   -0.2160   -1.3050    2.2140 H   0  0  0  0  0
    0.6670   -2.2430    4.1100 H   0  0  0  0  0
    0.5690    1.1040    0.1630 H   0  0  0  0  0
   -3.6780   -0.9060   -0.7310 H   0  0  0  0  0
  1  2  1  0  0  0
  1  4  1  0  0  0
  1  8  1  0  0  0
  1 19  1  0  0  0
  2  3  1  0  0  0
  2 20  1  0  0  0
  2 21  1  0  0  0
  3 22  1  0  0  0
  4  5  1  0  0  0
  5  6  1  0  0  0
  5 23  1  0  0  0
  5 24  1  0  0  0
  6  7  1  0  0  0
  6 10  1  0  0  0
  6 25  1  0  0  0
  7  8  1  0  0  0
  7 26  1  0  0  0
  7 27  1  0  0  0
  8  9  1  0  0  0
  8 28  1  0  0  0
  9 29  1  0  0  0
 10 11  1  0  0  0
 10 12  1  0  0  0
 11 17  2  0  0  0
 11 30  1  0  0  0
 12 13  2  0  0  0
 12 14  1  0  0  0
 14 15  1  0  0  0
 14 31  1  0  0  0
 15 16  2  0  0  0
 15 17  1  0  0  0
 17 18  1  0  0  0
M  END
$$$$
