AIH
  CCTOOLS-0919241028

 65 69  0  0  1  0  0  0  0  0999 V2000
   -2.5420    0.0640    1.6010 C   0  0  0  0  0
   -1.8200   -0.9690    0.7200 C   0  0  0  0  0
   -2.3430   -0.9010   -0.5900 O   0  0  0  0  0
   -3.6280   -1.3090   -0.6780 C   0  0  0  0  0
   -3.9990   -1.8630   -1.9070 C   0  0  0  0  0
   -5.2880   -2.2910   -2.1360 C   0  0  0  0  0
   -6.2460   -2.1750   -1.1390 C   0  0  0  0  0
   -7.5230   -2.5850   -1.3640 O   0  0  0  0  0
   -5.8900   -1.6390    0.0850 C   0  0  0  0  0
   -4.5830   -1.2190    0.3230 C   0  0  0  0  0
   -4.1980   -0.6060    1.9350 S   0  0  0  0  0
   -2.6540    1.3770    0.8690 C   0  0  0  0  0
   -3.6160    1.5400   -0.1110 C   0  0  0  0  0
   -3.7200    2.7420   -0.7840 C   0  0  0  0  0
   -2.8600    3.7860   -0.4750 C   0  0  0  0  0
   -2.9610    4.9690   -1.1360 O   0  0  0  0  0
   -1.8960    3.6190    0.5090 C   0  0  0  0  0
   -1.7990    2.4170    1.1820 C   0  0  0  0  0
   -0.3440   -0.6640    0.6910 C   0  0  0  0  0
    0.5250   -1.3830    1.4920 C   0  0  0  0  0
    1.8780   -1.1050    1.4670 C   0  0  0  0  0
    2.3650   -0.1050    0.6380 C   0  0  0  0  0
    1.4900    0.6180   -0.1600 C   0  0  0  0  0
    0.1380    0.3330   -0.1360 C   0  0  0  0  0
    3.6950    0.1700    0.6110 O   0  0  0  0  0
    3.8790    1.2330   -0.3260 C   0  0  0  0  0
    5.3640    1.5930   -0.4040 C   0  0  0  0  0
    6.1150    0.4560   -0.9530 N   0  0  0  0  0
    7.5500    0.7690   -0.7760 C   0  0  0  0  0
    8.2430   -0.5290   -0.3220 C   0  0  0  0  0
    9.2840   -0.9640   -1.3560 C   0  0  0  0  0
    7.1130   -1.5790   -0.2230 C   0  0  0  0  0
    7.3050   -2.4780    1.0000 C   0  0  0  0  0
    5.8420   -0.7040   -0.0670 C   0  0  0  0  0
   -2.0000    0.2040    2.5370 H   0  0  0  0  0
   -1.9780   -1.9690    1.1250 H   0  0  0  0  0
   -3.2620   -1.9560   -2.6910 H   0  0  0  0  0
   -5.5530   -2.7170   -3.0920 H   0  0  0  0  0
   -7.5680   -3.5150   -1.1020 H   0  0  0  0  0
   -6.6320   -1.5460    0.8650 H   0  0  0  0  0
   -4.2850    0.7280   -0.3510 H   0  0  0  0  0
   -4.4710    2.8690   -1.5500 H   0  0  0  0  0
   -3.5790    5.5170   -0.6340 H   0  0  0  0  0
   -1.2250    4.4300    0.7500 H   0  0  0  0  0
   -1.0490    2.2870    1.9490 H   0  0  0  0  0
    0.1460   -2.1620    2.1370 H   0  0  0  0  0
    2.5560   -1.6670    2.0920 H   0  0  0  0  0
    1.8660    1.3970   -0.8070 H   0  0  0  0  0
   -0.5420    0.8920   -0.7610 H   0  0  0  0  0
    3.3100    2.1050   -0.0020 H   0  0  0  0  0
    3.5300    0.9150   -1.3080 H   0  0  0  0  0
    5.7350    1.8250    0.5950 H   0  0  0  0  0
    5.4940    2.4610   -1.0500 H   0  0  0  0  0
    7.6700    1.5400   -0.0140 H   0  0  0  0  0
    7.9760    1.1070   -1.7200 H   0  0  0  0  0
    8.7130   -0.3870    0.6510 H   0  0  0  0  0
   10.0600   -0.2030   -1.4320 H   0  0  0  0  0
    9.7300   -1.9090   -1.0460 H   0  0  0  0  0
    8.8020   -1.0900   -2.3250 H   0  0  0  0  0
    7.0610   -2.1760   -1.1340 H   0  0  0  0  0
    6.4510   -3.1490    1.0950 H   0  0  0  0  0
    8.2160   -3.0640    0.8810 H   0  0  0  0  0
    7.3840   -1.8610    1.8950 H   0  0  0  0  0
    5.7240   -0.3800    0.9660 H   0  0  0  0  0
    4.9580   -1.2460   -0.4050 H   0  0  0  0  0
  1  2  1  0  0  0
  1 11  1  0  0  0
  1 12  1  0  0  0
  1 35  1  0  0  0
  2  3  1  0  0  0
  2 19  1  0  0  0
  2 36  1  0  0  0
  3  4  1  0  0  0
  4  5  2  0  0  0
  4 10  1  0  0  0
  5  6  1  0  0  0
  5 37  1  0  0  0
  6  7  2  0  0  0
  6 38  1  0  0  0
  7  8  1  0  0  0
  7  9  1  0  0  0
  8 39  1  0  0  0
  9 10  2  0  0  0
  9 40  1  0  0  0
 10 11  1  0  0  0
 12 13  2  0  0  0
 12 18  1  0  0  0
 13 14  1  0  0  0
 13 41  1  0  0  0
 14 15  2  0  0  0
 14 42  1  0  0  0
 15 16  1  0  0  0
 15 17  1  0  0  0
 16 43  1  0  0  0
 17 18  2  0  0  0
 17 44  1  0  0  0
 18 45  1  0  0  0
 19 20  2  0  0  0
 19 24  1  0  0  0
 20 21  1  0  0  0
 20 46  1  0  0  0
 21 22  2  0  0  0
 21 47  1  0  0  0
 22 23  1  0  0  0
 22 25  1  0  0  0
 23 24  2  0  0  0
 23 48  1  0  0  0
 24 49  1  0  0  0
 25 26  1  0  0  0
 26 27  1  0  0  0
 26 50  1  0  0  0
 26 51  1  0  0  0
 27 28  1  0  0  0
 27 52  1  0  0  0
 27 53  1  0  0  0
 28 29  1  0  0  0
 28 34  1  0  0  0
 29 30  1  0  0  0
 29 54  1  0  0  0
 29 55  1  0  0  0
 30 31  1  0  0  0
 30 32  1  0  0  0
 30 56  1  0  0  0
 31 57  1  0  0  0
 31 58  1  0  0  0
 31 59  1  0  0  0
 32 33  1  0  0  0
 32 34  1  0  0  0
 32 60  1  0  0  0
 33 61  1  0  0  0
 33 62  1  0  0  0
 33 63  1  0  0  0
 34 64  1  0  0  0
 34 65  1  0  0  0
M  END
$$$$
