AIJ
  CCTOOLS-0919241028

 62 66  0  0  1  0  0  0  0  0999 V2000
   -2.0800   -0.0320   -1.5700 C   0  0  0  0  0
   -1.7580    1.1620   -0.6560 C   0  0  0  0  0
   -2.3510    0.9450    0.6080 O   0  0  0  0  0
   -3.7020    0.9710    0.5800 C   0  0  0  0  0
   -4.3180    1.3950    1.7620 C   0  0  0  0  0
   -5.6900    1.4390    1.8730 C   0  0  0  0  0
   -6.4870    1.0580    0.8030 C   0  0  0  0  0
   -7.8420    1.0880    0.9120 O   0  0  0  0  0
   -5.8910    0.6470   -0.3750 C   0  0  0  0  0
   -4.5030    0.6160   -0.4940 C   0  0  0  0  0
   -3.8240    0.1410   -2.0550 S   0  0  0  0  0
   -1.8790   -1.3240   -0.8210 C   0  0  0  0  0
   -2.8350   -1.7560    0.0800 C   0  0  0  0  0
   -2.6520   -2.9390    0.7680 C   0  0  0  0  0
   -1.5080   -3.6950    0.5550 C   0  0  0  0  0
   -1.3260   -4.8590    1.2310 O   0  0  0  0  0
   -0.5500   -3.2590   -0.3490 C   0  0  0  0  0
   -0.7400   -2.0770   -1.0390 C   0  0  0  0  0
   -0.2650    1.2890   -0.4980 C   0  0  0  0  0
    0.4300    2.2260   -1.2400 C   0  0  0  0  0
    1.7990    2.3450   -1.0970 C   0  0  0  0  0
    2.4760    1.5220   -0.2080 C   0  0  0  0  0
    1.7770    0.5780    0.5300 C   0  0  0  0  0
    0.4070    0.4680    0.3880 C   0  0  0  0  0
    3.8230    1.6360   -0.0660 O   0  0  0  0  0
    4.2190    0.6670    0.9070 C   0  0  0  0  0
    5.7330    0.7440    1.1150 C   0  0  0  0  0
    6.1250    2.1750    1.4860 C   0  0  0  0  0
    6.4180    0.3530   -0.1240 N   0  0  0  0  0
    7.8650    0.4480    0.1440 C   0  0  0  0  0
    8.4450   -0.9780    0.0340 C   0  0  0  0  0
    7.4000   -1.7130   -0.8470 C   0  0  0  0  0
    6.0770   -1.0640   -0.3700 C   0  0  0  0  0
   -1.4430   -0.0100   -2.4540 H   0  0  0  0  0
   -2.1580    2.0760   -1.0950 H   0  0  0  0  0
   -3.7080    1.6920    2.6020 H   0  0  0  0  0
   -6.1460    1.7700    2.7940 H   0  0  0  0  0
   -8.1260    1.9670    0.6280 H   0  0  0  0  0
   -6.5060    0.3490   -1.2110 H   0  0  0  0  0
   -3.7250   -1.1670    0.2450 H   0  0  0  0  0
   -3.3990   -3.2760    1.4720 H   0  0  0  0  0
   -1.7190   -5.5600    0.6920 H   0  0  0  0  0
    0.3410   -3.8450   -0.5160 H   0  0  0  0  0
    0.0050   -1.7380   -1.7440 H   0  0  0  0  0
   -0.0970    2.8670   -1.9310 H   0  0  0  0  0
    2.3420    3.0770   -1.6760 H   0  0  0  0  0
    2.3020   -0.0630    1.2230 H   0  0  0  0  0
   -0.1380   -0.2620    0.9670 H   0  0  0  0  0
    3.9500   -0.3290    0.5570 H   0  0  0  0  0
    3.7120    0.8710    1.8500 H   0  0  0  0  0
    6.0230    0.0680    1.9200 H   0  0  0  0  0
    5.8350    2.8510    0.6810 H   0  0  0  0  0
    5.6170    2.4650    2.4050 H   0  0  0  0  0
    7.2040    2.2300    1.6340 H   0  0  0  0  0
    8.3370    1.0980   -0.5930 H   0  0  0  0  0
    8.0310    0.8390    1.1480 H   0  0  0  0  0
    9.4190   -0.9610   -0.4560 H   0  0  0  0  0
    8.5150   -1.4430    1.0170 H   0  0  0  0  0
    7.5730   -1.5150   -1.9050 H   0  0  0  0  0
    7.4050   -2.7840   -0.6460 H   0  0  0  0  0
    5.7330   -1.5370    0.5500 H   0  0  0  0  0
    5.3150   -1.1420   -1.1450 H   0  0  0  0  0
  1  2  1  0  0  0
  1 11  1  0  0  0
  1 12  1  0  0  0
  1 34  1  0  0  0
  2  3  1  0  0  0
  2 19  1  0  0  0
  2 35  1  0  0  0
  3  4  1  0  0  0
  4  5  2  0  0  0
  4 10  1  0  0  0
  5  6  1  0  0  0
  5 36  1  0  0  0
  6  7  2  0  0  0
  6 37  1  0  0  0
  7  8  1  0  0  0
  7  9  1  0  0  0
  8 38  1  0  0  0
  9 10  2  0  0  0
  9 39  1  0  0  0
 10 11  1  0  0  0
 12 13  2  0  0  0
 12 18  1  0  0  0
 13 14  1  0  0  0
 13 40  1  0  0  0
 14 15  2  0  0  0
 14 41  1  0  0  0
 15 16  1  0  0  0
 15 17  1  0  0  0
 16 42  1  0  0  0
 17 18  2  0  0  0
 17 43  1  0  0  0
 18 44  1  0  0  0
 19 20  2  0  0  0
 19 24  1  0  0  0
 20 21  1  0  0  0
 20 45  1  0  0  0
 21 22  2  0  0  0
 21 46  1  0  0  0
 22 23  1  0  0  0
 22 25  1  0  0  0
 23 24  2  0  0  0
 23 47  1  0  0  0
 24 48  1  0  0  0
 25 26  1  0  0  0
 26 27  1  0  0  0
 26 49  1  0  0  0
 26 50  1  0  0  0
 27 28  1  0  0  0
 27 29  1  0  0  0
 27 51  1  0  0  0
 28 52  1  0  0  0
 28 53  1  0  0  0
 28 54  1  0  0  0
 29 30  1  0  0  0
 29 33  1  0  0  0
 30 31  1  0  0  0
 30 55  1  0  0  0
 30 56  1  0  0  0
 31 32  1  0  0  0
 31 57  1  0  0  0
 31 58  1  0  0  0
 32 33  1  0  0  0
 32 59  1  0  0  0
 32 60  1  0  0  0
 33 61  1  0  0  0
 33 62  1  0  0  0
M  END
$$$$
