AIT
  CCTOOLS-0919241028

 62 66  0  0  1  0  0  0  0  0999 V2000
    2.3250   -0.2810    1.6110 C   0  0  0  0  0
    1.6800    0.9410    0.9350 C   0  0  0  0  0
    2.1000    0.9940   -0.4130 O   0  0  0  0  0
    3.4170    1.2580   -0.5560 C   0  0  0  0  0
    3.7700    1.9300   -1.7310 C   0  0  0  0  0
    5.0830    2.2330   -2.0110 C   0  0  0  0  0
    6.0850    1.8700   -1.1230 C   0  0  0  0  0
    7.3850    2.1560   -1.4000 O   0  0  0  0  0
    5.7490    1.2150    0.0480 C   0  0  0  0  0
    4.4190    0.9200    0.3400 C   0  0  0  0  0
    4.0710    0.1400    1.8860 S   0  0  0  0  0
    2.2190   -1.4840    0.7080 C   0  0  0  0  0
    3.0770   -1.6160   -0.3680 C   0  0  0  0  0
    2.9820   -2.7180   -1.1960 C   0  0  0  0  0
    2.0250   -3.6910   -0.9480 C   0  0  0  0  0
    1.9300   -4.7750   -1.7610 O   0  0  0  0  0
    1.1660   -3.5550    0.1330 C   0  0  0  0  0
    1.2680   -2.4550    0.9620 C   0  0  0  0  0
    0.1790    0.8170    0.9920 C   0  0  0  0  0
   -0.5350    1.5140    1.9500 C   0  0  0  0  0
   -1.9100    1.4020    2.0040 C   0  0  0  0  0
   -2.5760    0.5890    1.0980 C   0  0  0  0  0
   -1.8560   -0.1130    0.1420 C   0  0  0  0  0
   -0.4810    0.0070    0.0870 C   0  0  0  0  0
   -3.9290    0.4770    1.1490 O   0  0  0  0  0
   -4.3100   -0.4170    0.1020 C   0  0  0  0  0
   -5.8300   -0.5880    0.1050 C   0  0  0  0  0
   -6.2900   -1.0420    1.4920 C   0  0  0  0  0
   -6.4670    0.6930   -0.2280 N   0  0  0  0  0
   -6.0730    1.0170   -1.6110 C   0  0  0  0  0
   -7.3570    1.0070   -2.4670 C   0  0  0  0  0
   -8.4770    1.2390   -1.4190 C   0  0  0  0  0
   -7.9270    0.4620   -0.1960 C   0  0  0  0  0
    1.8350   -0.4850    2.5630 H   0  0  0  0  0
    1.9910    1.8500    1.4500 H   0  0  0  0  0
    2.9990    2.2160   -2.4310 H   0  0  0  0  0
    5.3340    2.7540   -2.9240 H   0  0  0  0  0
    7.5660    3.0290   -1.0260 H   0  0  0  0  0
    6.5250    0.9290    0.7430 H   0  0  0  0  0
    3.8220   -0.8580   -0.5610 H   0  0  0  0  0
    3.6520   -2.8210   -2.0370 H   0  0  0  0  0
    2.5120   -5.4530   -1.3930 H   0  0  0  0  0
    0.4200   -4.3120    0.3280 H   0  0  0  0  0
    0.6000   -2.3490    1.8030 H   0  0  0  0  0
   -0.0160    2.1460    2.6550 H   0  0  0  0  0
   -2.4680    1.9460    2.7520 H   0  0  0  0  0
   -2.3720   -0.7460   -0.5650 H   0  0  0  0  0
    0.0790   -0.5360   -0.6600 H   0  0  0  0  0
   -3.8350   -1.3860    0.2610 H   0  0  0  0  0
   -3.9920   -0.0100   -0.8580 H   0  0  0  0  0
   -6.1130   -1.3370   -0.6350 H   0  0  0  0  0
   -6.0550   -0.2690    2.2230 H   0  0  0  0  0
   -7.3660   -1.2150    1.4790 H   0  0  0  0  0
   -5.7770   -1.9650    1.7610 H   0  0  0  0  0
   -5.6120    2.0040   -1.6440 H   0  0  0  0  0
   -5.3740    0.2670   -1.9820 H   0  0  0  0  0
   -7.3390    1.8160   -3.1970 H   0  0  0  0  0
   -7.4840    0.0440   -2.9600 H   0  0  0  0  0
   -8.5850    2.3000   -1.1910 H   0  0  0  0  0
   -9.4220    0.8160   -1.7580 H   0  0  0  0  0
   -8.1460   -0.6010   -0.2930 H   0  0  0  0  0
   -8.3540    0.8560    0.7260 H   0  0  0  0  0
  1  2  1  0  0  0
  1 11  1  0  0  0
  1 12  1  0  0  0
  1 34  1  0  0  0
  2  3  1  0  0  0
  2 19  1  0  0  0
  2 35  1  0  0  0
  3  4  1  0  0  0
  4  5  2  0  0  0
  4 10  1  0  0  0
  5  6  1  0  0  0
  5 36  1  0  0  0
  6  7  2  0  0  0
  6 37  1  0  0  0
  7  8  1  0  0  0
  7  9  1  0  0  0
  8 38  1  0  0  0
  9 10  2  0  0  0
  9 39  1  0  0  0
 10 11  1  0  0  0
 12 13  2  0  0  0
 12 18  1  0  0  0
 13 14  1  0  0  0
 13 40  1  0  0  0
 14 15  2  0  0  0
 14 41  1  0  0  0
 15 16  1  0  0  0
 15 17  1  0  0  0
 16 42  1  0  0  0
 17 18  2  0  0  0
 17 43  1  0  0  0
 18 44  1  0  0  0
 19 20  2  0  0  0
 19 24  1  0  0  0
 20 21  1  0  0  0
 20 45  1  0  0  0
 21 22  2  0  0  0
 21 46  1  0  0  0
 22 23  1  0  0  0
 22 25  1  0  0  0
 23 24  2  0  0  0
 23 47  1  0  0  0
 24 48  1  0  0  0
 25 26  1  0  0  0
 26 27  1  0  0  0
 26 49  1  0  0  0
 26 50  1  0  0  0
 27 28  1  0  0  0
 27 29  1  0  0  0
 27 51  1  0  0  0
 28 52  1  0  0  0
 28 53  1  0  0  0
 28 54  1  0  0  0
 29 30  1  0  0  0
 29 33  1  0  0  0
 30 31  1  0  0  0
 30 55  1  0  0  0
 30 56  1  0  0  0
 31 32  1  0  0  0
 31 57  1  0  0  0
 31 58  1  0  0  0
 32 33  1  0  0  0
 32 59  1  0  0  0
 32 60  1  0  0  0
 33 61  1  0  0  0
 33 62  1  0  0  0
M  END
$$$$
