AIU
  CCTOOLS-0919241028

 65 69  0  0  1  0  0  0  0  0999 V2000
   -2.8020   -0.3330   -1.6030 C   0  0  0  0  0
   -2.0660    0.8840   -1.0160 C   0  0  0  0  0
   -2.3980    1.0040    0.3520 O   0  0  0  0  0
   -3.6910    1.3310    0.5650 C   0  0  0  0  0
   -3.9420    2.0600    1.7320 C   0  0  0  0  0
   -5.2210    2.4300    2.0790 C   0  0  0  0  0
   -6.2910    2.0790    1.2690 C   0  0  0  0  0
   -7.5580    2.4320    1.6140 O   0  0  0  0  0
   -6.0570    1.3680    0.1060 C   0  0  0  0  0
   -4.7610    1.0050   -0.2540 C   0  0  0  0  0
   -4.5430    0.1540   -1.7870 S   0  0  0  0  0
   -2.6900   -1.5050   -0.6630 C   0  0  0  0  0
   -3.4890   -1.5650    0.4640 C   0  0  0  0  0
   -3.3880   -2.6380    1.3280 C   0  0  0  0  0
   -2.4840   -3.6570    1.0640 C   0  0  0  0  0
   -2.3830   -4.7140    1.9120 O   0  0  0  0  0
   -1.6830   -3.5950   -0.0670 C   0  0  0  0  0
   -1.7910   -2.5220   -0.9310 C   0  0  0  0  0
   -0.5780    0.6920   -1.1600 C   0  0  0  0  0
    0.1030    1.3210   -2.1860 C   0  0  0  0  0
    1.4670    1.1470   -2.3200 C   0  0  0  0  0
    2.1530    0.3400   -1.4250 C   0  0  0  0  0
    1.4670   -0.2950   -0.4000 C   0  0  0  0  0
    0.1040   -0.1130   -0.2660 C   0  0  0  0  0
    3.4950    0.1670   -1.5550 O   0  0  0  0  0
    3.9030   -0.7040   -0.4980 C   0  0  0  0  0
    5.4120   -0.9420   -0.5870 C   0  0  0  0  0
    6.1210    0.3220   -0.3450 N   0  0  0  0  0
    7.5370    0.0840   -0.6820 C   0  0  0  0  0
    8.3490    0.2420    0.6200 C   0  0  0  0  0
    9.6730    0.9590    0.3490 C   0  0  0  0  0
    7.4260    1.1140    1.5110 C   0  0  0  0  0
    7.6930    0.8670    2.9970 C   0  0  0  0  0
    6.0220    0.5940    1.1050 C   0  0  0  0  0
   -2.3820   -0.5930   -2.5750 H   0  0  0  0  0
   -2.3710    1.7860   -1.5470 H   0  0  0  0  0
   -3.1170    2.3370    2.3710 H   0  0  0  0  0
   -5.3930    2.9950    2.9840 H   0  0  0  0  0
   -7.7250    3.2980    1.2180 H   0  0  0  0  0
   -6.8860    1.0910   -0.5280 H   0  0  0  0  0
   -4.1930   -0.7720    0.6690 H   0  0  0  0  0
   -4.0120   -2.6850    2.2080 H   0  0  0  0  0
   -3.0100   -5.3820    1.6020 H   0  0  0  0  0
   -0.9780   -4.3860   -0.2740 H   0  0  0  0  0
   -1.1690   -2.4730   -1.8110 H   0  0  0  0  0
   -0.4320    1.9500   -2.8830 H   0  0  0  0  0
    1.9980    1.6390   -3.1210 H   0  0  0  0  0
    1.9990   -0.9240    0.2990 H   0  0  0  0  0
   -0.4300   -0.6030    0.5340 H   0  0  0  0  0
    3.3800   -1.6560   -0.5900 H   0  0  0  0  0
    3.6630   -0.2480    0.4620 H   0  0  0  0  0
    5.6630   -1.3150   -1.5800 H   0  0  0  0  0
    5.7090   -1.6750    0.1620 H   0  0  0  0  0
    7.8710    0.8160   -1.4180 H   0  0  0  0  0
    7.6600   -0.9240   -1.0760 H   0  0  0  0  0
    8.5270   -0.7290    1.0840 H   0  0  0  0  0
    9.4750    1.9200   -0.1250 H   0  0  0  0  0
   10.1990    1.1190    1.2900 H   0  0  0  0  0
   10.2890    0.3480   -0.3120 H   0  0  0  0  0
    7.5360    2.1700    1.2660 H   0  0  0  0  0
    7.6180   -0.2000    3.2070 H   0  0  0  0  0
    8.6940    1.2180    3.2490 H   0  0  0  0  0
    6.9580    1.4080    3.5930 H   0  0  0  0  0
    5.2640    1.3530    1.2980 H   0  0  0  0  0
    5.7880   -0.3220    1.6480 H   0  0  0  0  0
  1  2  1  0  0  0
  1 11  1  0  0  0
  1 12  1  0  0  0
  1 35  1  0  0  0
  2  3  1  0  0  0
  2 19  1  0  0  0
  2 36  1  0  0  0
  3  4  1  0  0  0
  4  5  2  0  0  0
  4 10  1  0  0  0
  5  6  1  0  0  0
  5 37  1  0  0  0
  6  7  2  0  0  0
  6 38  1  0  0  0
  7  8  1  0  0  0
  7  9  1  0  0  0
  8 39  1  0  0  0
  9 10  2  0  0  0
  9 40  1  0  0  0
 10 11  1  0  0  0
 12 13  2  0  0  0
 12 18  1  0  0  0
 13 14  1  0  0  0
 13 41  1  0  0  0
 14 15  2  0  0  0
 14 42  1  0  0  0
 15 16  1  0  0  0
 15 17  1  0  0  0
 16 43  1  0  0  0
 17 18  2  0  0  0
 17 44  1  0  0  0
 18 45  1  0  0  0
 19 20  2  0  0  0
 19 24  1  0  0  0
 20 21  1  0  0  0
 20 46  1  0  0  0
 21 22  2  0  0  0
 21 47  1  0  0  0
 22 23  1  0  0  0
 22 25  1  0  0  0
 23 24  2  0  0  0
 23 48  1  0  0  0
 24 49  1  0  0  0
 25 26  1  0  0  0
 26 27  1  0  0  0
 26 50  1  0  0  0
 26 51  1  0  0  0
 27 28  1  0  0  0
 27 52  1  0  0  0
 27 53  1  0  0  0
 28 29  1  0  0  0
 28 34  1  0  0  0
 29 30  1  0  0  0
 29 54  1  0  0  0
 29 55  1  0  0  0
 30 31  1  0  0  0
 30 32  1  0  0  0
 30 56  1  0  0  0
 31 57  1  0  0  0
 31 58  1  0  0  0
 31 59  1  0  0  0
 32 33  1  0  0  0
 32 34  1  0  0  0
 32 60  1  0  0  0
 33 61  1  0  0  0
 33 62  1  0  0  0
 33 63  1  0  0  0
 34 64  1  0  0  0
 34 65  1  0  0  0
M  END
$$$$
