AJM
  CCTOOLS-0919241028

 44 49  0  0  1  0  0  0  0  0999 V2000
   -0.3220   -2.8800   -0.3930 O   0  0  0  0  0
    0.2010   -1.5840   -0.6920 C   0  0  0  0  0
   -0.5520   -0.5160    0.0770 C   0  0  0  0  0
    0.0900   -0.5170    1.4620 C   0  0  0  0  0
   -2.0240   -0.4910    0.1640 C   0  0  0  0  0
   -2.9820   -1.4810    0.2070 C   0  0  0  0  0
   -4.3100   -1.0860    0.3030 C   0  0  0  0  0
   -4.6670    0.2460    0.3520 C   0  0  0  0  0
   -2.3880    0.8790    0.1490 C   0  0  0  0  0
   -3.7180    1.2570    0.3040 C   0  0  0  0  0
    1.6330   -1.4780   -0.1580 C   0  0  0  0  0
    2.5480   -0.8260   -1.1930 C   0  0  0  0  0
    3.7990   -0.2750   -0.4740 C   0  0  0  0  0
    1.5920   -0.5400    1.0730 C   0  0  0  0  0
    1.9070    0.8310    0.6320 N   0  0  0  0  0
    3.3490    0.8770    0.4300 C   0  0  0  0  0
    4.0070    0.7660    1.6930 O   0  0  0  0  0
    1.2000    1.1640   -0.5920 C   0  0  0  0  0
    1.8510    0.4170   -1.7760 C   0  0  0  0  0
   -0.2590    0.8410   -0.6130 C   0  0  0  0  0
   -1.2450    1.6960    0.0440 N   0  0  0  0  0
   -1.5770    2.7650   -0.9080 C   0  0  0  0  0
    0.1950   -3.5150   -0.9090 H   0  0  0  0  0
    0.1530   -1.3900   -1.7630 H   0  0  0  0  0
   -0.1830   -1.3950    2.0470 H   0  0  0  0  0
   -0.1710    0.4030    1.9850 H   0  0  0  0  0
   -2.7100   -2.5260    0.1670 H   0  0  0  0  0
   -5.0830   -1.8400    0.3390 H   0  0  0  0  0
   -5.7120    0.5090    0.4300 H   0  0  0  0  0
   -4.0050    2.2970    0.3400 H   0  0  0  0  0
    2.0070   -2.4680    0.1040 H   0  0  0  0  0
    2.8210   -1.5300   -1.9790 H   0  0  0  0  0
    4.2540   -1.0610    0.1290 H   0  0  0  0  0
    4.5170    0.0900   -1.2090 H   0  0  0  0  0
    2.2280   -0.8630    1.8980 H   0  0  0  0  0
    3.6240    1.8240   -0.0350 H   0  0  0  0  0
    4.9570    0.8140    1.5190 H   0  0  0  0  0
    1.3120    2.2340   -0.7680 H   0  0  0  0  0
    1.0860    0.1140   -2.4900 H   0  0  0  0  0
    2.5830    1.0600   -2.2640 H   0  0  0  0  0
   -0.5600    0.7390   -1.6560 H   0  0  0  0  0
   -1.9880    2.3270   -1.8180 H   0  0  0  0  0
   -2.3140    3.4330   -0.4610 H   0  0  0  0  0
   -0.6760    3.3280   -1.1510 H   0  0  0  0  0
  1  2  1  0  0  0
  1 23  1  0  0  0
  2  3  1  0  0  0
  2 11  1  0  0  0
  2 24  1  0  0  0
  3  4  1  0  0  0
  3  5  1  0  0  0
  3 20  1  0  0  0
  4 14  1  0  0  0
  4 25  1  0  0  0
  4 26  1  0  0  0
  5  6  2  0  0  0
  5  9  1  0  0  0
  6  7  1  0  0  0
  6 27  1  0  0  0
  7  8  2  0  0  0
  7 28  1  0  0  0
  8 10  1  0  0  0
  8 29  1  0  0  0
  9 10  2  0  0  0
  9 21  1  0  0  0
 10 30  1  0  0  0
 11 12  1  0  0  0
 11 14  1  0  0  0
 11 31  1  0  0  0
 12 13  1  0  0  0
 12 19  1  0  0  0
 12 32  1  0  0  0
 13 16  1  0  0  0
 13 33  1  0  0  0
 13 34  1  0  0  0
 14 15  1  0  0  0
 14 35  1  0  0  0
 15 16  1  0  0  0
 15 18  1  0  0  0
 16 17  1  0  0  0
 16 36  1  0  0  0
 17 37  1  0  0  0
 18 19  1  0  0  0
 18 20  1  0  0  0
 18 38  1  0  0  0
 19 39  1  0  0  0
 19 40  1  0  0  0
 20 21  1  0  0  0
 20 41  1  0  0  0
 21 22  1  0  0  0
 22 42  1  0  0  0
 22 43  1  0  0  0
 22 44  1  0  0  0
M  END
$$$$
