AKG
  CCTOOLS-1004241126

 16 15  0  0  0  0  0  0  0  0999 V2000
    2.4200   -0.3090    0.0020 C   0  0  0  0  0
    2.4280   -1.5220    0.0010 O   0  0  0  0  0
    3.5810    0.3720   -0.0030 O   0  0  0  0  0
    1.1240    0.4280    0.0010 C   0  0  0  0  0
    1.1160    1.6360    0.0020 O   0  0  0  0  0
   -0.1760   -0.3340    0.0010 C   0  0  0  0  0
   -1.3460    0.6520    0.0000 C   0  0  0  0  0
   -2.6460   -0.1090   -0.0000 C   0  0  0  0  0
   -2.6380   -1.3180   -0.0010 O   0  0  0  0  0
   -3.8130    0.5540   -0.0010 O   0  0  0  0  0
    4.3950   -0.1500   -0.0070 H   0  0  0  0  0
   -0.2290   -0.9610   -0.8900 H   0  0  0  0  0
   -0.2300   -0.9610    0.8900 H   0  0  0  0  0
   -1.2920    1.2790    0.8910 H   0  0  0  0  0
   -1.2920    1.2800   -0.8900 H   0  0  0  0  0
   -4.6200    0.0220   -0.0010 H   0  0  0  0  0
  1  2  2  0  0  0
  1  3  1  0  0  0
  1  4  1  0  0  0
  3 11  1  0  0  0
  4  5  2  0  0  0
  4  6  1  0  0  0
  6  7  1  0  0  0
  6 12  1  0  0  0
  6 13  1  0  0  0
  7  8  1  0  0  0
  7 14  1  0  0  0
  7 15  1  0  0  0
  8  9  2  0  0  0
  8 10  1  0  0  0
 10 16  1  0  0  0
M  END
$$$$
