ALE
  CCTOOLS-0919241029

 26 26  0  0  1  0  0  0  0  0999 V2000
   -0.0540    0.2000    0.3830 C   0  0  0  0  0
    0.7910   -0.8700    0.6130 C   0  0  0  0  0
    2.1240   -0.7930    0.2430 C   0  0  0  0  0
    2.6090    0.3640   -0.3590 C   0  0  0  0  0
    1.7580    1.4330   -0.5860 C   0  0  0  0  0
    0.4290    1.3490   -0.2150 C   0  0  0  0  0
    2.9550   -1.8450    0.4690 O   0  0  0  0  0
    3.9170    0.4450   -0.7240 O   0  0  0  0  0
   -1.9560    1.3940    1.2240 O   0  0  0  0  0
   -4.5830   -0.8450   -1.1700 C   0  0  0  0  0
   -3.7510   -0.4190   -0.0360 N   0  0  0  0  0
   -2.3370   -0.3330   -0.4240 C   0  0  0  0  0
   -1.5050    0.1120    0.7800 C   0  0  0  0  0
    0.4110   -1.7670    1.0810 H   0  0  0  0  0
   -0.2340    2.1830   -0.3930 H   0  0  0  0  0
   -1.6170   -0.6120    1.5870 H   0  0  0  0  0
    2.9950   -2.4790   -0.2610 H   0  0  0  0  0
    2.1330    2.3320   -1.0530 H   0  0  0  0  0
    4.0940    0.1390   -1.6240 H   0  0  0  0  0
   -1.8850    2.0890    0.5550 H   0  0  0  0  0
   -4.2540   -1.8260   -1.5140 H   0  0  0  0  0
   -5.6250   -0.9000   -0.8560 H   0  0  0  0  0
   -4.4860   -0.1240   -1.9830 H   0  0  0  0  0
   -4.0770    0.4580    0.3410 H   0  0  0  0  0
   -1.9930   -1.3100   -0.7620 H   0  0  0  0  0
   -2.2240    0.3910   -1.2310 H   0  0  0  0  0
  1  2  1  0  0  0
  1  6  2  0  0  0
  1 13  1  0  0  0
  2  3  2  0  0  0
  2 14  1  0  0  0
  3  4  1  0  0  0
  3  7  1  0  0  0
  4  5  2  0  0  0
  4  8  1  0  0  0
  5  6  1  0  0  0
  5 18  1  0  0  0
  6 15  1  0  0  0
  7 17  1  0  0  0
  8 19  1  0  0  0
  9 13  1  0  0  0
  9 20  1  0  0  0
 10 11  1  0  0  0
 10 21  1  0  0  0
 10 22  1  0  0  0
 10 23  1  0  0  0
 11 12  1  0  0  0
 11 24  1  0  0  0
 12 13  1  0  0  0
 12 25  1  0  0  0
 12 26  1  0  0  0
 13 16  1  0  0  0
M  END
$$$$
