ALO
  CCTOOLS-1004241126

 17 16  0  0  1  0  0  0  0  0999 V2000
    1.8970   -0.3390    0.2280 N   0  0  0  0  0
    0.4390   -0.4740    0.0990 C   0  0  0  0  0
   -0.2470    0.4000    1.1490 C   0  0  0  0  0
    0.1830   -0.0460    2.5470 C   0  0  0  0  0
   -1.6650    0.2690    1.0230 O   0  0  0  0  0
    0.0140   -0.0330   -1.2770 C   0  0  0  0  0
    0.6460    0.8140   -1.8630 O   0  0  0  0  0
   -1.0660   -0.5820   -1.8540 O   0  0  0  0  0
    2.1230   -0.5440    1.1890 H   0  0  0  0  0
    2.1120    0.6350    0.0800 H   0  0  0  0  0
    0.1560   -1.5150    0.2510 H   0  0  0  0  0
    0.0350    1.4410    0.9970 H   0  0  0  0  0
   -0.3060    0.5760    3.2950 H   0  0  0  0  0
   -0.0990   -1.0880    2.6990 H   0  0  0  0  0
    1.2650    0.0520    2.6430 H   0  0  0  0  0
   -1.8730   -0.6640    1.1650 H   0  0  0  0  0
   -1.3380   -0.2990   -2.7380 H   0  0  0  0  0
  1  2  1  0  0  0
  1  9  1  0  0  0
  1 10  1  0  0  0
  2  3  1  0  0  0
  2  6  1  0  0  0
  2 11  1  0  0  0
  3  4  1  0  0  0
  3  5  1  0  0  0
  3 12  1  0  0  0
  4 13  1  0  0  0
  4 14  1  0  0  0
  4 15  1  0  0  0
  5 16  1  0  0  0
  6  7  2  0  0  0
  6  8  1  0  0  0
  8 17  1  0  0  0
M  END
$$$$
