ALS
  CCTOOLS-1004241126

 19 18  0  0  1  0  0  0  0  0999 V2000
    2.8060   -0.0270    0.1110 C   0  0  0  0  0
    3.2400   -0.7680    0.9610 O   0  0  0  0  0
    1.5760   -0.4140   -0.6690 C   0  0  0  0  0
    1.3780   -1.8670   -0.5840 N   0  0  0  0  0
    0.3560    0.3020   -0.0850 C   0  0  0  0  0
    0.4950    1.7120   -0.2730 O   0  0  0  0  0
   -0.8260   -0.1520   -0.7480 O   0  0  0  0  0
   -2.0740   -0.1220    0.1210 S   0  0  0  0  0
   -3.0930   -0.7840   -0.6160 O   0  0  0  0  0
   -1.6680   -0.5270    1.4210 O   0  0  0  0  0
   -2.5060    1.3330    0.2390 O   0  0  0  0  0
    3.4160    1.1430   -0.1350 O   0  0  0  0  0
    1.7010   -0.1240   -1.7130 H   0  0  0  0  0
    1.2590   -2.1600    0.3740 H   0  0  0  0  0
    0.5970   -2.1590   -1.1510 H   0  0  0  0  0
    0.2820    0.0830    0.9800 H   0  0  0  0  0
    0.5670    1.9800   -1.2000 H   0  0  0  0  0
    4.2020    1.3470    0.3910 H   0  0  0  0  0
   -3.2990    1.4650    0.7770 H   0  0  0  0  0
  1  3  1  0  0  0
  1 12  1  0  0  0
  2  1  2  0  0  0
  3  5  1  0  0  0
  3  4  1  0  0  0
  3 13  1  0  0  0
  4 14  1  0  0  0
  4 15  1  0  0  0
  5  7  1  0  0  0
  5 16  1  0  0  0
  6  5  1  0  0  0
  6 17  1  0  0  0
  7  8  1  0  0  0
  8 11  1  0  0  0
  9  8  2  0  0  0
 10  8  2  0  0  0
 11 19  1  0  0  0
 12 18  1  0  0  0
M  END
$$$$
