AMH
  CCTOOLS-0919241029

 26 26  0  0  0  0  0  0  0  0999 V2000
   -0.0180    0.4240   -1.1050 C   0  0  0  0  0
   -1.3530   -0.0210   -0.5050 C   0  0  0  0  0
   -1.4280    0.4210    0.9570 C   0  0  0  0  0
   -0.2790   -0.2150    1.7410 C   0  0  0  0  0
    1.0560    0.2290    1.1410 C   0  0  0  0  0
    1.1300   -0.2120   -0.3210 C   0  0  0  0  0
   -0.3530    0.2260    3.2040 C   0  0  0  0  0
    0.0550   -0.0110   -2.5460 C   0  0  0  0  0
    0.7490   -0.3850    3.9570 N   0  0  0  0  0
   -0.8660   -0.6150   -3.0420 O   0  0  0  0  0
    1.1430    0.2720   -3.2780 O   0  0  0  0  0
    0.0610    1.5090   -1.0490 H   0  0  0  0  0
   -1.4330   -1.1060   -0.5610 H   0  0  0  0  0
   -2.1720    0.4320   -1.0640 H   0  0  0  0  0
   -2.3790    0.1040    1.3840 H   0  0  0  0  0
   -1.3480    1.5060    1.0130 H   0  0  0  0  0
   -0.3580   -1.3010    1.6850 H   0  0  0  0  0
    1.1350    1.3140    1.1970 H   0  0  0  0  0
    1.8740   -0.2240    1.7000 H   0  0  0  0  0
    1.0500   -1.2980   -0.3770 H   0  0  0  0  0
    2.0820    0.1040   -0.7480 H   0  0  0  0  0
   -1.3040   -0.0900    3.6310 H   0  0  0  0  0
   -0.2730    1.3110    3.2600 H   0  0  0  0  0
    0.6600   -0.0670    4.9110 H   0  0  0  0  0
    0.5780   -1.3790    3.9660 H   0  0  0  0  0
    1.1900   -0.0070   -4.2030 H   0  0  0  0  0
  1  2  1  0  0  0
  1  6  1  0  0  0
  1  8  1  0  0  0
  1 12  1  0  0  0
  2  3  1  0  0  0
  2 13  1  0  0  0
  2 14  1  0  0  0
  3  4  1  0  0  0
  3 15  1  0  0  0
  3 16  1  0  0  0
  4  5  1  0  0  0
  4  7  1  0  0  0
  4 17  1  0  0  0
  5  6  1  0  0  0
  5 18  1  0  0  0
  5 19  1  0  0  0
  6 20  1  0  0  0
  6 21  1  0  0  0
  7  9  1  0  0  0
  7 22  1  0  0  0
  7 23  1  0  0  0
  8 10  2  0  0  0
  8 11  1  0  0  0
  9 24  1  0  0  0
  9 25  1  0  0  0
 11 26  1  0  0  0
M  END
$$$$
