ANC
  CCTOOLS-0919241029

 26 28  0  0  0  0  0  0  0  0999 V2000
   -1.0700   -0.0000    0.8890 C   0  0  0  0  0
   -1.8900   -0.0000    2.0370 C   0  0  0  0  0
    0.3850    0.0050    1.0620 C   0  0  0  0  0
   -1.3220   -0.0000    3.2710 C   0  0  0  0  0
    0.9130   -0.0000    2.3770 C   0  0  0  0  0
    0.0590    0.0000    3.4430 C   0  0  0  0  0
    0.9200   -0.0000   -3.7080 C   0  0  0  0  0
   -0.4640   -0.0000   -3.8740 C   0  0  0  0  0
    1.4910   -0.0000   -2.4760 C   0  0  0  0  0
   -1.3110   -0.0000   -2.8120 C   0  0  0  0  0
    0.6710    0.0000   -1.3280 C   0  0  0  0  0
   -0.7850    0.0000   -1.5020 C   0  0  0  0  0
   -1.6240   -0.0000   -0.3900 C   0  0  0  0  0
    1.2230   -0.0000   -0.0480 C   0  0  0  0  0
    2.2910   -0.0000    2.5810 N   0  0  0  0  0
   -2.9660   -0.0010    1.9350 H   0  0  0  0  0
   -1.9590   -0.0000    4.1430 H   0  0  0  0  0
    0.4660    0.0000    4.4430 H   0  0  0  0  0
    1.5550   -0.0000   -4.5820 H   0  0  0  0  0
   -0.8740   -0.0000   -4.8730 H   0  0  0  0  0
    2.5670   -0.0000   -2.3760 H   0  0  0  0  0
   -2.3790   -0.0000   -2.9690 H   0  0  0  0  0
   -2.6960   -0.0000   -0.5180 H   0  0  0  0  0
    2.2960   -0.0010    0.0800 H   0  0  0  0  0
    2.6470   -0.0000    3.4830 H   0  0  0  0  0
    2.8930   -0.0050    1.8210 H   0  0  0  0  0
  1  2  2  0  0  0
  1  3  1  0  0  0
  1 13  1  0  0  0
  2  4  1  0  0  0
  2 16  1  0  0  0
  3  5  2  0  0  0
  3 14  1  0  0  0
  4  6  2  0  0  0
  4 17  1  0  0  0
  5  6  1  0  0  0
  5 15  1  0  0  0
  6 18  1  0  0  0
  7  8  1  0  0  0
  7  9  2  0  0  0
  7 19  1  0  0  0
  8 10  2  0  0  0
  8 20  1  0  0  0
  9 11  1  0  0  0
  9 21  1  0  0  0
 10 12  1  0  0  0
 10 22  1  0  0  0
 11 12  1  0  0  0
 11 14  2  0  0  0
 12 13  2  0  0  0
 13 23  1  0  0  0
 14 24  1  0  0  0
 15 25  1  0  0  0
 15 26  1  0  0  0
M  END
$$$$
