ANN
  CCTOOLS-1004241126

 19 19  0  0  0  0  0  0  0  0999 V2000
    0.8660   -0.0010    3.6410 C   0  0  0  0  0
   -0.4560   -0.0000    3.1010 O   0  0  0  0  0
   -0.3280   -0.0000    1.7500 C   0  0  0  0  0
   -1.4620    0.0000    0.9460 C   0  0  0  0  0
   -1.3370    0.0000   -0.4240 C   0  0  0  0  0
   -0.0670    0.0000   -1.0080 C   0  0  0  0  0
    1.0700   -0.0000   -0.1960 C   0  0  0  0  0
    0.9360    0.0040    1.1740 C   0  0  0  0  0
    0.0720   -0.0000   -2.4760 C   0  0  0  0  0
    1.2970   -0.0000   -3.0360 O   0  0  0  0  0
   -0.9180   -0.0000   -3.1800 O   0  0  0  0  0
    0.8140   -0.0020    4.7300 H   0  0  0  0  0
    1.3960   -0.8920    3.3020 H   0  0  0  0  0
    1.3970    0.8880    3.3030 H   0  0  0  0  0
   -2.4430    0.0000    1.3980 H   0  0  0  0  0
   -2.2190    0.0000   -1.0480 H   0  0  0  0  0
    2.0540   -0.0010   -0.6430 H   0  0  0  0  0
    1.8150    0.0040    1.8020 H   0  0  0  0  0
    1.3880   -0.0010   -3.9990 H   0  0  0  0  0
  1  2  1  0  0  0
  1 12  1  0  0  0
  1 13  1  0  0  0
  1 14  1  0  0  0
  2  3  1  0  0  0
  3  4  2  0  0  0
  3  8  1  0  0  0
  4  5  1  0  0  0
  4 15  1  0  0  0
  5  6  2  0  0  0
  5 16  1  0  0  0
  6  7  1  0  0  0
  6  9  1  0  0  0
  7  8  2  0  0  0
  7 17  1  0  0  0
  8 18  1  0  0  0
  9 10  1  0  0  0
  9 11  2  0  0  0
 10 19  1  0  0  0
M  END
$$$$
