ANP
  CCTOOLS-0919241029

 48 50  0  0  1  0  0  0  0  0999 V2000
   -6.3780   -1.8250    0.6550 P   0  0  0  0  0
   -7.4330   -0.8280    0.3640 O   0  0  0  0  0
   -6.8380   -2.7470    1.8930 O   0  0  0  0  0
   -6.1400   -2.7480   -0.6420 O   0  0  0  0  0
   -4.4320   -0.0540   -0.2220 P   0  0  0  0  0
   -4.1970   -0.8880   -1.4210 O   0  0  0  0  0
   -5.5620    1.0470   -0.5460 O   0  0  0  0  0
   -4.9480   -1.0300    1.0480 N   0  0  0  0  0
   -2.0860    1.7270   -0.5510 P   0  0  0  0  0
   -1.9480    1.3430   -1.9740 O   0  0  0  0  0
   -2.7040    3.2100   -0.4540 O   0  0  0  0  0
   -3.0640    0.6880    0.1930 O   0  0  0  0  0
   -0.6380    1.7010    0.1540 O   0  0  0  0  0
    0.4820    2.4370   -0.3410 C   0  0  0  0  0
    1.6930    2.1890    0.5610 C   0  0  0  0  0
    2.1070    0.8170    0.4570 O   0  0  0  0  0
    2.8770    3.0610    0.0990 C   0  0  0  0  0
    3.2860    3.9440    1.1460 O   0  0  0  0  0
    3.9980    2.0420   -0.2180 C   0  0  0  0  0
    5.2640    2.5160    0.2440 O   0  0  0  0  0
    3.5450    0.7990    0.5900 C   0  0  0  0  0
    4.1020   -0.4250    0.0080 N   0  0  0  0  0
    3.5190   -1.2010   -0.9500 C   0  0  0  0  0
    4.2890   -2.2100   -1.2330 N   0  0  0  0  0
    5.4120   -2.1470   -0.4770 C   0  0  0  0  0
    6.5660   -2.9400   -0.3540 C   0  0  0  0  0
    6.7270   -4.0800   -1.1210 N   0  0  0  0  0
    7.4990   -2.5680    0.5170 N   0  0  0  0  0
    7.3540   -1.4820    1.2530 C   0  0  0  0  0
    6.2900   -0.7100    1.1710 N   0  0  0  0  0
    5.3080   -0.9980    0.3240 C   0  0  0  0  0
   -7.6570   -3.2360    1.7360 H   0  0  0  0  0
   -5.4600   -3.4260   -0.5240 H   0  0  0  0  0
   -5.7670    1.6300    0.1980 H   0  0  0  0  0
   -5.0540   -0.4940    1.8970 H   0  0  0  0  0
   -2.8220    3.5280    0.4520 H   0  0  0  0  0
    0.7110    2.1110   -1.3550 H   0  0  0  0  0
    0.2440    3.5010   -0.3460 H   0  0  0  0  0
    1.4390    2.4220    1.5950 H   0  0  0  0  0
    2.6090    3.6270   -0.7930 H   0  0  0  0  0
    4.0280    4.5170    0.9100 H   0  0  0  0  0
    4.0330    1.8220   -1.2850 H   0  0  0  0  0
    5.5490    3.3430   -0.1690 H   0  0  0  0  0
    3.8350    0.8950    1.6360 H   0  0  0  0  0
    2.5600   -1.0060   -1.4060 H   0  0  0  0  0
    6.0400   -4.3410   -1.7530 H   0  0  0  0  0
    7.5290   -4.6190   -1.0270 H   0  0  0  0  0
    8.1360   -1.2160    1.9480 H   0  0  0  0  0
  1  2  2  0  0  0
  1  3  1  0  0  0
  1  4  1  0  0  0
  1  8  1  0  0  0
  3 32  1  0  0  0
  4 33  1  0  0  0
  5  6  2  0  0  0
  5  7  1  0  0  0
  5  8  1  0  0  0
  5 12  1  0  0  0
  7 34  1  0  0  0
  8 35  1  0  0  0
  9 10  2  0  0  0
  9 11  1  0  0  0
  9 12  1  0  0  0
  9 13  1  0  0  0
 11 36  1  0  0  0
 13 14  1  0  0  0
 14 15  1  0  0  0
 14 37  1  0  0  0
 14 38  1  0  0  0
 15 16  1  0  0  0
 15 17  1  0  0  0
 15 39  1  0  0  0
 16 21  1  0  0  0
 17 18  1  0  0  0
 17 19  1  0  0  0
 17 40  1  0  0  0
 18 41  1  0  0  0
 19 20  1  0  0  0
 19 21  1  0  0  0
 19 42  1  0  0  0
 20 43  1  0  0  0
 21 22  1  0  0  0
 21 44  1  0  0  0
 22 23  1  0  0  0
 22 31  1  0  0  0
 23 24  2  0  0  0
 23 45  1  0  0  0
 24 25  1  0  0  0
 25 26  1  0  0  0
 25 31  2  0  0  0
 26 27  1  0  0  0
 26 28  2  0  0  0
 27 46  1  0  0  0
 27 47  1  0  0  0
 28 29  1  0  0  0
 29 30  2  0  0  0
 29 48  1  0  0  0
 30 31  1  0  0  0
M  END
$$$$
