AOM
  CCTOOLS-0919241029

 53 56  0  0  1  0  0  0  0  0999 V2000
    1.4650   -0.6170   -2.3590 C   0  0  0  0  0
    0.2990    0.0060   -1.5590 C   0  0  0  0  0
    1.6760   -0.2970    0.5080 C   0  0  0  0  0
    1.7030   -0.7810    1.9670 C   0  0  0  0  0
    0.5790   -0.0740    2.6990 C   0  0  0  0  0
   -0.7570   -0.5460    2.0660 C   0  0  0  0  0
   -1.7880   -0.0270    3.0730 C   0  0  0  0  0
   -1.1260   -0.3420    4.4420 C   0  0  0  0  0
    0.4060   -0.4150    4.1760 C   0  0  0  0  0
    0.7240    1.4390    2.5310 C   0  0  0  0  0
    0.4760    1.5240   -1.4970 C   0  0  0  0  0
    1.4630   -0.0490   -3.7790 C   0  0  0  0  0
    0.1300   -0.3740   -4.4570 C   0  0  0  0  0
   -1.0120    0.2520   -3.6560 C   0  0  0  0  0
   -1.0110   -0.3160   -2.2360 C   0  0  0  0  0
   -2.1560    0.3060   -1.4350 C   0  0  0  0  0
   -2.1540   -0.2610   -0.0140 C   0  0  0  0  0
   -0.8230    0.0670    0.6630 C   0  0  0  0  0
    0.3220   -0.5650   -0.1400 C   0  0  0  0  0
    0.1290    0.1550   -5.7840 O   0  0  0  0  0
    1.0970    0.5260    4.9990 O   0  0  0  0  0
    1.3330   -1.6980   -2.4000 H   0  0  0  0  0
    2.4150   -0.3860   -1.8770 H   0  0  0  0  0
    1.8770    0.7740    0.4840 H   0  0  0  0  0
    2.4510   -0.8170   -0.0540 H   0  0  0  0  0
    2.6590   -0.5280    2.4250 H   0  0  0  0  0
    1.5470   -1.8600    2.0030 H   0  0  0  0  0
   -0.8000   -1.6340    2.0060 H   0  0  0  0  0
   -1.9370    1.0460    2.9550 H   0  0  0  0  0
   -2.7330   -0.5620    2.9690 H   0  0  0  0  0
   -1.3410    0.4530    5.1540 H   0  0  0  0  0
   -1.4920   -1.2950    4.8240 H   0  0  0  0  0
    0.7750   -1.4230    4.3640 H   0  0  0  0  0
    0.7670    1.6840    1.4700 H   0  0  0  0  0
   -0.1300    1.9390    2.9860 H   0  0  0  0  0
    1.6410    1.7720    3.0180 H   0  0  0  0  0
    0.4810    1.9310   -2.5090 H   0  0  0  0  0
   -0.3450    1.9630   -0.9330 H   0  0  0  0  0
    1.4210    1.7600   -1.0060 H   0  0  0  0  0
    2.2790   -0.4940   -4.3500 H   0  0  0  0  0
    1.5960    1.0310   -3.7380 H   0  0  0  0  0
   -0.0020   -1.4550   -4.4960 H   0  0  0  0  0
   -1.9620    0.0220   -4.1380 H   0  0  0  0  0
   -0.8780    1.3330   -3.6150 H   0  0  0  0  0
   -1.1430   -1.3970   -2.2770 H   0  0  0  0  0
   -3.1050    0.0740   -1.9180 H   0  0  0  0  0
   -2.0250    1.3870   -1.3940 H   0  0  0  0  0
   -2.2830   -1.3430   -0.0550 H   0  0  0  0  0
   -2.9710    0.1810    0.5550 H   0  0  0  0  0
   -0.6890    1.1480    0.7070 H   0  0  0  0  0
    0.1640   -1.6420   -0.1920 H   0  0  0  0  0
    0.8630   -0.2640   -6.2530 H   0  0  0  0  0
    0.9220    0.2760    5.9170 H   0  0  0  0  0
  1  2  1  0  0  0
  1 12  1  0  0  0
  1 22  1  0  0  0
  1 23  1  0  0  0
  2 11  1  0  0  0
  2 15  1  0  0  0
  2 19  1  0  0  0
  3  4  1  0  0  0
  3 19  1  0  0  0
  3 24  1  0  0  0
  3 25  1  0  0  0
  4  5  1  0  0  0
  4 26  1  0  0  0
  4 27  1  0  0  0
  5  6  1  0  0  0
  5  9  1  0  0  0
  5 10  1  0  0  0
  6  7  1  0  0  0
  6 18  1  0  0  0
  6 28  1  0  0  0
  7  8  1  0  0  0
  7 29  1  0  0  0
  7 30  1  0  0  0
  8  9  1  0  0  0
  8 31  1  0  0  0
  8 32  1  0  0  0
  9 21  1  0  0  0
  9 33  1  0  0  0
 10 34  1  0  0  0
 10 35  1  0  0  0
 10 36  1  0  0  0
 11 37  1  0  0  0
 11 38  1  0  0  0
 11 39  1  0  0  0
 12 13  1  0  0  0
 12 40  1  0  0  0
 12 41  1  0  0  0
 13 14  1  0  0  0
 13 20  1  0  0  0
 13 42  1  0  0  0
 14 15  1  0  0  0
 14 43  1  0  0  0
 14 44  1  0  0  0
 15 16  1  0  0  0
 15 45  1  0  0  0
 16 17  1  0  0  0
 16 46  1  0  0  0
 16 47  1  0  0  0
 17 18  1  0  0  0
 17 48  1  0  0  0
 17 49  1  0  0  0
 18 19  1  0  0  0
 18 50  1  0  0  0
 19 51  1  0  0  0
 20 52  1  0  0  0
 21 53  1  0  0  0
M  END
$$$$
