AON
  CCTOOLS-0919241029

 53 56  0  0  1  0  0  0  0  0999 V2000
    1.5240   -0.4530   -2.3040 C   0  0  0  0  0
    0.2890    0.0680   -1.5350 C   0  0  0  0  0
    1.6960    0.0790    0.5330 C   0  0  0  0  0
    1.7860   -0.3000    2.0210 C   0  0  0  0  0
    0.5830    0.3050    2.7160 C   0  0  0  0  0
   -0.6830   -0.3720    2.1280 C   0  0  0  0  0
   -1.7710    0.0770    3.1090 C   0  0  0  0  0
   -1.0710   -0.0600    4.4890 C   0  0  0  0  0
    0.4570    0.0440    4.2130 C   0  0  0  0  0
    0.5350    1.8110    2.4480 C   0  0  0  0  0
    0.2720    1.5980   -1.5750 C   0  0  0  0  0
    1.4480    0.0140   -3.7590 C   0  0  0  0  0
    0.1660   -0.5200   -4.4000 C   0  0  0  0  0
   -1.0460    0.0070   -3.6310 C   0  0  0  0  0
   -0.9700   -0.4610   -2.1770 C   0  0  0  0  0
   -2.1840    0.0630   -1.4070 C   0  0  0  0  0
   -2.1080   -0.4050    0.0470 C   0  0  0  0  0
   -0.8280    0.1330    0.6890 C   0  0  0  0  0
    0.3870   -0.4000   -0.0830 C   0  0  0  0  0
    0.0950   -0.0840   -5.7590 O   0  0  0  0  0
    1.1060   -1.1850    4.5440 O   0  0  0  0  0
    1.5300   -1.5430   -2.2730 H   0  0  0  0  0
    2.4380   -0.0720   -1.8470 H   0  0  0  0  0
    1.7600    1.1630    0.4370 H   0  0  0  0  0
    2.5300   -0.3740   -0.0010 H   0  0  0  0  0
    2.7040    0.1010    2.4510 H   0  0  0  0  0
    1.7690   -1.3840    2.1280 H   0  0  0  0  0
   -0.5880   -1.4580    2.1390 H   0  0  0  0  0
   -2.0540    1.1130    2.9220 H   0  0  0  0  0
   -2.6390   -0.5780    3.0500 H   0  0  0  0  0
   -1.3850    0.7470    5.1500 H   0  0  0  0  0
   -1.3130   -1.0240    4.9370 H   0  0  0  0  0
    0.8890    0.8640    4.7860 H   0  0  0  0  0
    0.5540    1.9890    1.3720 H   0  0  0  0  0
   -0.3800    2.2260    2.8680 H   0  0  0  0  0
    1.3970    2.2900    2.9110 H   0  0  0  0  0
    0.2240    1.9340   -2.6110 H   0  0  0  0  0
   -0.5980    1.9650   -1.0330 H   0  0  0  0  0
    1.1790    1.9830   -1.1100 H   0  0  0  0  0
    2.3120   -0.3600   -4.3070 H   0  0  0  0  0
    1.4420    1.1030   -3.7900 H   0  0  0  0  0
    0.1710   -1.6100   -4.3680 H   0  0  0  0  0
   -1.9600   -0.3720   -4.0880 H   0  0  0  0  0
   -1.0500    1.0960   -3.6620 H   0  0  0  0  0
   -0.9640   -1.5500   -2.1460 H   0  0  0  0  0
   -3.0970   -0.3190   -1.8640 H   0  0  0  0  0
   -2.1910    1.1520   -1.4380 H   0  0  0  0  0
   -2.0990   -1.4940    0.0780 H   0  0  0  0  0
   -2.9740   -0.0320    0.5940 H   0  0  0  0  0
   -0.8330    1.2230    0.6610 H   0  0  0  0  0
    0.3660   -1.4890   -0.0630 H   0  0  0  0  0
    0.8760   -0.4380   -6.2070 H   0  0  0  0  0
    0.9620   -1.3310    5.4890 H   0  0  0  0  0
  1  2  1  0  0  0
  1 12  1  0  0  0
  1 22  1  0  0  0
  1 23  1  0  0  0
  2 11  1  0  0  0
  2 15  1  0  0  0
  2 19  1  0  0  0
  3  4  1  0  0  0
  3 19  1  0  0  0
  3 24  1  0  0  0
  3 25  1  0  0  0
  4  5  1  0  0  0
  4 26  1  0  0  0
  4 27  1  0  0  0
  5  6  1  0  0  0
  5  9  1  0  0  0
  5 10  1  0  0  0
  6  7  1  0  0  0
  6 18  1  0  0  0
  6 28  1  0  0  0
  7  8  1  0  0  0
  7 29  1  0  0  0
  7 30  1  0  0  0
  8  9  1  0  0  0
  8 31  1  0  0  0
  8 32  1  0  0  0
  9 21  1  0  0  0
  9 33  1  0  0  0
 10 34  1  0  0  0
 10 35  1  0  0  0
 10 36  1  0  0  0
 11 37  1  0  0  0
 11 38  1  0  0  0
 11 39  1  0  0  0
 12 13  1  0  0  0
 12 40  1  0  0  0
 12 41  1  0  0  0
 13 14  1  0  0  0
 13 20  1  0  0  0
 13 42  1  0  0  0
 14 15  1  0  0  0
 14 43  1  0  0  0
 14 44  1  0  0  0
 15 16  1  0  0  0
 15 45  1  0  0  0
 16 17  1  0  0  0
 16 46  1  0  0  0
 16 47  1  0  0  0
 17 18  1  0  0  0
 17 48  1  0  0  0
 17 49  1  0  0  0
 18 19  1  0  0  0
 18 50  1  0  0  0
 19 51  1  0  0  0
 20 52  1  0  0  0
 21 53  1  0  0  0
M  END
$$$$
