APC
  CCTOOLS-0919241029

 49 51  0  0  1  0  0  0  0  0999 V2000
    1.2390   -0.2390   -7.0920 P   0  0  0  0  0
    1.7660    1.1350   -6.9440 O   0  0  0  0  0
    2.1730   -1.0660   -8.1090 O   0  0  0  0  0
   -0.2620   -0.1790   -7.6710 O   0  0  0  0  0
    0.2820   -0.0930   -4.6940 P   0  0  0  0  0
    0.8240    1.2790   -4.5830 O   0  0  0  0  0
   -1.2020   -0.0350   -5.3140 O   0  0  0  0  0
    1.2310   -0.9680   -5.6560 O   0  0  0  0  0
   -0.8510    0.1320   -1.9520 P   0  0  0  0  0
   -0.3090    1.5050   -1.8410 O   0  0  0  0  0
   -2.3360    0.1900   -2.5710 O   0  0  0  0  0
    0.2220   -0.8580   -3.0410 C   0  0  0  0  0
   -0.9050   -0.5420   -0.4910 O   0  0  0  0  0
   -1.7570    0.2760    0.3110 C   0  0  0  0  0
   -1.8520   -0.3130    1.7200 C   0  0  0  0  0
   -0.5490   -0.3390    2.3420 O   0  0  0  0  0
   -2.7060    0.5960    2.6300 C   0  0  0  0  0
   -4.0430    0.0990    2.7210 O   0  0  0  0  0
   -2.0040    0.5180    4.0060 C   0  0  0  0  0
   -2.8870   -0.0260    4.9890 O   0  0  0  0  0
   -0.8070   -0.4260    3.7610 C   0  0  0  0  0
    0.3610    0.0230    4.5200 N   0  0  0  0  0
    1.3040    0.9130    4.0980 C   0  0  0  0  0
    2.2010    1.0840    5.0250 N   0  0  0  0  0
    1.8900    0.3210    6.1000 C   0  0  0  0  0
    2.4790    0.0950    7.3550 C   0  0  0  0  0
    3.6460    0.7450    7.7170 N   0  0  0  0  0
    1.8870   -0.7530    8.1890 N   0  0  0  0  0
    0.7730   -1.3780    7.8520 C   0  0  0  0  0
    0.1890   -1.2020    6.6860 N   0  0  0  0  0
    0.7090   -0.3730    5.7870 C   0  0  0  0  0
    2.1500   -0.5970   -8.9540 H   0  0  0  0  0
   -0.5670   -1.0930   -7.7520 H   0  0  0  0  0
   -1.5170   -0.9480   -5.3690 H   0  0  0  0  0
   -2.6520   -0.7210   -2.6260 H   0  0  0  0  0
    1.2270   -0.8970   -2.6220 H   0  0  0  0  0
   -0.1760   -1.8690   -3.1230 H   0  0  0  0  0
   -2.7510    0.3120   -0.1340 H   0  0  0  0  0
   -1.3470    1.2840    0.3660 H   0  0  0  0  0
   -2.2740   -1.3170    1.6820 H   0  0  0  0  0
   -2.7050    1.6200    2.2560 H   0  0  0  0  0
   -4.5270    0.7050    3.2990 H   0  0  0  0  0
   -1.6540    1.5040    4.3120 H   0  0  0  0  0
   -3.6400    0.5760    5.0520 H   0  0  0  0  0
   -1.0670   -1.4480    4.0370 H   0  0  0  0  0
    1.3060    1.4040    3.1360 H   0  0  0  0  0
    4.0410    0.5840    8.5880 H   0  0  0  0  0
    4.0710    1.3590    7.0980 H   0  0  0  0  0
    0.3250   -2.0600    8.5600 H   0  0  0  0  0
  1  2  2  0  0  0
  1  3  1  0  0  0
  1  4  1  0  0  0
  1  8  1  0  0  0
  3 32  1  0  0  0
  4 33  1  0  0  0
  5  6  2  0  0  0
  5  7  1  0  0  0
  5  8  1  0  0  0
  5 12  1  0  0  0
  7 34  1  0  0  0
  9 10  2  0  0  0
  9 11  1  0  0  0
  9 12  1  0  0  0
  9 13  1  0  0  0
 11 35  1  0  0  0
 12 36  1  0  0  0
 12 37  1  0  0  0
 13 14  1  0  0  0
 14 15  1  0  0  0
 14 38  1  0  0  0
 14 39  1  0  0  0
 15 16  1  0  0  0
 15 17  1  0  0  0
 15 40  1  0  0  0
 16 21  1  0  0  0
 17 18  1  0  0  0
 17 19  1  0  0  0
 17 41  1  0  0  0
 18 42  1  0  0  0
 19 20  1  0  0  0
 19 21  1  0  0  0
 19 43  1  0  0  0
 20 44  1  0  0  0
 21 22  1  0  0  0
 21 45  1  0  0  0
 22 23  1  0  0  0
 22 31  1  0  0  0
 23 24  2  0  0  0
 23 46  1  0  0  0
 24 25  1  0  0  0
 25 26  1  0  0  0
 25 31  2  0  0  0
 26 27  1  0  0  0
 26 28  2  0  0  0
 27 47  1  0  0  0
 27 48  1  0  0  0
 28 29  1  0  0  0
 29 30  2  0  0  0
 29 49  1  0  0  0
 30 31  1  0  0  0
M  END
$$$$
