ARA
  CCTOOLS-1004241126

 20 20  0  0  1  0  0  0  0  0999 V2000
    0.3160   -0.2530    1.3560 C   0  0  0  0  0
   -0.8170    0.2170    0.4430 C   0  0  0  0  0
   -0.7160   -0.5170   -0.9000 C   0  0  0  0  0
    0.6970   -0.3210   -1.4580 C   0  0  0  0  0
    1.7160   -0.7510   -0.4010 C   0  0  0  0  0
    0.2100    0.4030    2.6210 O   0  0  0  0  0
   -2.0760   -0.0730    1.0550 O   0  0  0  0  0
   -1.6770    0.0180   -1.8130 O   0  0  0  0  0
    0.8960    1.0560   -1.7820 O   0  0  0  0  0
    1.5750    0.0580    0.7640 O   0  0  0  0  0
    0.2410   -1.3310    1.5010 H   0  0  0  0  0
   -0.7310    1.2910    0.2780 H   0  0  0  0  0
   -0.9070   -1.5800   -0.7510 H   0  0  0  0  0
    0.8230   -0.9280   -2.3540 H   0  0  0  0  0
    1.5480   -1.7950   -0.1390 H   0  0  0  0  0
    2.7240   -0.6370   -0.8010 H   0  0  0  0  0
    0.9380    0.0770    3.1670 H   0  0  0  0  0
   -2.0940    0.4020    1.8960 H   0  0  0  0  0
   -1.5780   -0.4710   -2.6410 H   0  0  0  0  0
    1.7960    1.1350   -2.1260 H   0  0  0  0  0
  1  2  1  0  0  0
  1  6  1  0  0  0
  1 10  1  0  0  0
  1 11  1  0  0  0
  2  3  1  0  0  0
  2  7  1  0  0  0
  2 12  1  0  0  0
  3  4  1  0  0  0
  3  8  1  0  0  0
  3 13  1  0  0  0
  4  5  1  0  0  0
  4  9  1  0  0  0
  4 14  1  0  0  0
  5 10  1  0  0  0
  5 15  1  0  0  0
  5 16  1  0  0  0
  6 17  1  0  0  0
  7 18  1  0  0  0
  8 19  1  0  0  0
  9 20  1  0  0  0
M  END
$$$$
