ARL
  CCTOOLS-0919241030

 57 57  0  0  0  0  0  0  0  0999 V2000
    0.8430   -1.2140    5.1860 C   0  0  0  0  0
   -0.0270   -0.0270    4.8640 C   0  0  0  0  0
   -0.2310    0.3530    3.5260 C   0  0  0  0  0
    0.3580   -0.3500    2.5210 C   0  0  0  0  0
    0.1540    0.0300    1.1790 C   0  0  0  0  0
    0.6480   -0.7320    0.1760 C   0  0  0  0  0
    1.5290   -1.9140    0.4910 C   0  0  0  0  0
    0.3260   -0.4080   -1.2200 C   0  0  0  0  0
    1.3490   -0.1070   -2.1270 C   0  0  0  0  0
    1.0390    0.1950   -3.4350 C   0  0  0  0  0
   -0.2800    0.2030   -3.8530 C   0  0  0  0  0
   -1.2980   -0.0920   -2.9630 C   0  0  0  0  0
   -1.0040   -0.4030   -1.6530 C   0  0  0  0  0
   -2.7310   -0.0800   -3.4290 C   0  0  0  0  0
   -3.6510   -0.4390   -2.2600 C   0  0  0  0  0
   -3.0870    1.3130   -3.9490 C   0  0  0  0  0
   -2.9110   -1.1040   -4.5520 C   0  0  0  0  0
    2.1390    0.5190   -4.4130 C   0  0  0  0  0
    3.4920    0.4410   -3.7030 C   0  0  0  0  0
    2.1090   -0.4860   -5.5660 C   0  0  0  0  0
    1.9320    1.9310   -4.9640 C   0  0  0  0  0
   -0.6170    0.6760    5.8690 C   0  0  0  0  0
   -0.1430    0.5500    7.1930 C   0  0  0  0  0
   -0.8100    1.1380    8.2080 O   0  0  0  0  0
    0.8670   -0.0890    7.4180 O   0  0  0  0  0
    0.7930   -1.4210    6.2550 H   0  0  0  0  0
    0.4910   -2.0830    4.6300 H   0  0  0  0  0
    1.8730   -0.9950    4.9060 H   0  0  0  0  0
   -0.8550    1.2040    3.2950 H   0  0  0  0  0
    0.9820   -1.2010    2.7520 H   0  0  0  0  0
   -0.3950    0.9320    0.9520 H   0  0  0  0  0
    1.5750   -2.0540    1.5710 H   0  0  0  0  0
    1.1150   -2.8090    0.0260 H   0  0  0  0  0
    2.5320   -1.7340    0.1050 H   0  0  0  0  0
    2.3790   -0.1130   -1.8020 H   0  0  0  0  0
   -0.5170    0.4420   -4.8800 H   0  0  0  0  0
   -1.7990   -0.6340   -0.9590 H   0  0  0  0  0
   -4.6870   -0.4300   -2.5970 H   0  0  0  0  0
   -3.3970   -1.4320   -1.8900 H   0  0  0  0  0
   -3.5230    0.2900   -1.4600 H   0  0  0  0  0
   -2.9590    2.0430   -3.1490 H   0  0  0  0  0
   -2.4310    1.5690   -4.7820 H   0  0  0  0  0
   -4.1230    1.3220   -4.2860 H   0  0  0  0  0
   -2.6570   -2.0970   -4.1810 H   0  0  0  0  0
   -3.9470   -1.0960   -4.8890 H   0  0  0  0  0
   -2.2560   -0.8490   -5.3850 H   0  0  0  0  0
    4.2870    0.6750   -4.4100 H   0  0  0  0  0
    3.5130    1.1570   -2.8820 H   0  0  0  0  0
    3.6390   -0.5650   -3.3110 H   0  0  0  0  0
    2.2560   -1.4930   -5.1740 H   0  0  0  0  0
    1.1450   -0.4310   -6.0720 H   0  0  0  0  0
    2.9050   -0.2520   -6.2730 H   0  0  0  0  0
    1.9540    2.6480   -4.1430 H   0  0  0  0  0
    2.7280    2.1650   -5.6710 H   0  0  0  0  0
    0.9680    1.9870   -5.4700 H   0  0  0  0  0
   -1.4480    1.3320    5.6540 H   0  0  0  0  0
   -0.3250    0.9310    9.0190 H   0  0  0  0  0
  1  2  1  0  0  0
  1 26  1  0  0  0
  1 27  1  0  0  0
  1 28  1  0  0  0
  2  3  1  0  0  0
  2 22  2  0  0  0
  3  4  2  0  0  0
  3 29  1  0  0  0
  4  5  1  0  0  0
  4 30  1  0  0  0
  5  6  2  0  0  0
  5 31  1  0  0  0
  6  7  1  0  0  0
  6  8  1  0  0  0
  7 32  1  0  0  0
  7 33  1  0  0  0
  7 34  1  0  0  0
  8  9  2  0  0  0
  8 13  1  0  0  0
  9 10  1  0  0  0
  9 35  1  0  0  0
 10 11  2  0  0  0
 10 18  1  0  0  0
 11 12  1  0  0  0
 11 36  1  0  0  0
 12 13  2  0  0  0
 12 14  1  0  0  0
 13 37  1  0  0  0
 14 15  1  0  0  0
 14 16  1  0  0  0
 14 17  1  0  0  0
 15 38  1  0  0  0
 15 39  1  0  0  0
 15 40  1  0  0  0
 16 41  1  0  0  0
 16 42  1  0  0  0
 16 43  1  0  0  0
 17 44  1  0  0  0
 17 45  1  0  0  0
 17 46  1  0  0  0
 18 19  1  0  0  0
 18 20  1  0  0  0
 18 21  1  0  0  0
 19 47  1  0  0  0
 19 48  1  0  0  0
 19 49  1  0  0  0
 20 50  1  0  0  0
 20 51  1  0  0  0
 20 52  1  0  0  0
 21 53  1  0  0  0
 21 54  1  0  0  0
 21 55  1  0  0  0
 22 23  1  0  0  0
 22 56  1  0  0  0
 23 24  1  0  0  0
 23 25  2  0  0  0
 24 57  1  0  0  0
M  END
$$$$
