ASC
  CCTOOLS-0919241030

 20 20  0  0  1  0  0  0  0  0999 V2000
    1.1820    0.1320   -1.3420 C   0  0  0  0  0
   -0.1820   -0.0550   -1.8180 C   0  0  0  0  0
   -1.0390    0.3520   -0.8600 C   0  0  0  0  0
   -0.1930    0.8290    0.2970 C   0  0  0  0  0
   -0.4900   -0.0060    1.5440 C   0  0  0  0  0
    0.3870    0.4730    2.7010 C   0  0  0  0  0
    2.1860   -0.1390   -1.9740 O   0  0  0  0  0
   -0.5350   -0.5610   -3.0330 O   0  0  0  0  0
   -2.3880    0.3360   -0.9230 O   0  0  0  0  0
    1.1690    0.6520   -0.1000 O   0  0  0  0  0
   -0.2110   -1.3810    1.2730 O   0  0  0  0  0
    0.1100   -0.3070    3.8650 O   0  0  0  0  0
   -0.3910    1.8820    0.4970 H   0  0  0  0  0
   -1.5400    0.1040    1.8140 H   0  0  0  0  0
    0.1740    1.5220    2.9070 H   0  0  0  0  0
    1.4370    0.3620    2.4300 H   0  0  0  0  0
    0.2860   -0.7630   -3.5010 H   0  0  0  0  0
   -2.6230   -0.0230   -1.7890 H   0  0  0  0  0
    0.7250   -1.4350    1.0380 H   0  0  0  0  0
    0.6830    0.0270    4.5690 H   0  0  0  0  0
  1  2  1  0  0  0
  1  7  2  0  0  0
  1 10  1  0  0  0
  2  3  2  0  0  0
  2  8  1  0  0  0
  3  4  1  0  0  0
  3  9  1  0  0  0
  4  5  1  0  0  0
  4 10  1  0  0  0
  4 13  1  0  0  0
  5  6  1  0  0  0
  5 11  1  0  0  0
  5 14  1  0  0  0
  6 12  1  0  0  0
  6 15  1  0  0  0
  6 16  1  0  0  0
  8 17  1  0  0  0
  9 18  1  0  0  0
 11 19  1  0  0  0
 12 20  1  0  0  0
M  END
$$$$
