ASD
  CCTOOLS-1004241126

 47 50  0  0  1  0  0  0  0  0999 V2000
   -2.4490    1.5720    0.3160 C   0  0  0  0  0
   -1.6190    0.3310    0.5330 C   0  0  0  0  0
    0.4400    1.6930    0.1730 C   0  0  0  0  0
    1.8500    1.7540   -0.4360 C   0  0  0  0  0
    2.6010    0.5290    0.0470 C   0  0  0  0  0
    1.8990   -0.7020   -0.5200 C   0  0  0  0  0
    2.9230   -1.8000   -0.2040 C   0  0  0  0  0
    4.2730   -1.1040   -0.5290 C   0  0  0  0  0
    4.0200    0.3760   -0.4160 C   0  0  0  0  0
    2.5560    0.4680    1.5750 C   0  0  0  0  0
   -1.2910    0.2730    2.0260 C   0  0  0  0  0
   -3.4180    1.4240   -0.8560 C   0  0  0  0  0
   -4.2620    0.1900   -0.6000 C   0  0  0  0  0
   -3.5260   -1.0460   -0.3010 C   0  0  0  0  0
   -2.2920   -0.9610    0.1900 C   0  0  0  0  0
   -1.5060   -2.2410    0.4140 C   0  0  0  0  0
   -0.1620   -2.0950   -0.3080 C   0  0  0  0  0
    0.5540   -0.8320    0.1730 C   0  0  0  0  0
   -0.2810    0.4040   -0.2050 C   0  0  0  0  0
   -5.4740    0.2210   -0.6390 O   0  0  0  0  0
    4.8100    1.2610   -0.6440 O   0  0  0  0  0
   -3.0180    1.7790    1.2220 H   0  0  0  0  0
   -1.7830    2.4130    0.1200 H   0  0  0  0  0
    0.5190    1.7510    1.2590 H   0  0  0  0  0
   -0.1390    2.5440   -0.1860 H   0  0  0  0  0
    1.7850    1.7430   -1.5240 H   0  0  0  0  0
    2.3600    2.6580   -0.1030 H   0  0  0  0  0
    1.7610   -0.6050   -1.5960 H   0  0  0  0  0
    2.8760   -2.0820    0.8470 H   0  0  0  0  0
    2.7710   -2.6670   -0.8470 H   0  0  0  0  0
    5.0340   -1.4130    0.1880 H   0  0  0  0  0
    4.5890   -1.3550   -1.5410 H   0  0  0  0  0
    1.5200    0.4960    1.9100 H   0  0  0  0  0
    3.0230   -0.4570    1.9160 H   0  0  0  0  0
    3.0960    1.3200    1.9890 H   0  0  0  0  0
   -2.2170    0.2250    2.6000 H   0  0  0  0  0
   -0.6890   -0.6120    2.2320 H   0  0  0  0  0
   -0.7340    1.1660    2.3100 H   0  0  0  0  0
   -4.0590    2.3040   -0.9190 H   0  0  0  0  0
   -2.8600    1.3050   -1.7850 H   0  0  0  0  0
   -3.9750   -2.0100   -0.4890 H   0  0  0  0  0
   -1.3380   -2.3900    1.4810 H   0  0  0  0  0
   -2.0550   -3.0890    0.0040 H   0  0  0  0  0
    0.4590   -2.9660   -0.0980 H   0  0  0  0  0
   -0.3330   -2.0260   -1.3820 H   0  0  0  0  0
    0.7010   -0.8830    1.2520 H   0  0  0  0  0
   -0.4630    0.3960   -1.2800 H   0  0  0  0  0
  1  2  1  0  0  0
  1 12  1  0  0  0
  1 22  1  0  0  0
  1 23  1  0  0  0
  2 11  1  0  0  0
  2 15  1  0  0  0
  2 19  1  0  0  0
  3  4  1  0  0  0
  3 19  1  0  0  0
  3 24  1  0  0  0
  3 25  1  0  0  0
  4  5  1  0  0  0
  4 26  1  0  0  0
  4 27  1  0  0  0
  5  6  1  0  0  0
  5  9  1  0  0  0
  5 10  1  0  0  0
  6  7  1  0  0  0
  6 18  1  0  0  0
  6 28  1  0  0  0
  7  8  1  0  0  0
  7 29  1  0  0  0
  7 30  1  0  0  0
  8  9  1  0  0  0
  8 31  1  0  0  0
  8 32  1  0  0  0
  9 21  2  0  0  0
 10 33  1  0  0  0
 10 34  1  0  0  0
 10 35  1  0  0  0
 11 36  1  0  0  0
 11 37  1  0  0  0
 11 38  1  0  0  0
 12 13  1  0  0  0
 12 39  1  0  0  0
 12 40  1  0  0  0
 13 14  1  0  0  0
 13 20  2  0  0  0
 14 15  2  0  0  0
 14 41  1  0  0  0
 15 16  1  0  0  0
 16 17  1  0  0  0
 16 42  1  0  0  0
 16 43  1  0  0  0
 17 18  1  0  0  0
 17 44  1  0  0  0
 17 45  1  0  0  0
 18 19  1  0  0  0
 18 46  1  0  0  0
 19 47  1  0  0  0
M  END
$$$$
