AT1
  CCTOOLS-0919241030

 40 40  0  0  1  0  0  0  0  0999 V2000
   -2.2180   -0.4760    0.4380 N   0  0  0  0  0
   -0.6520    0.8800    1.7420 C   0  0  0  0  0
   -2.4310   -0.5750    4.0600 O   0  0  0  0  0
   -1.5820   -0.3340    1.7550 C   0  0  0  0  0
   -2.6430   -0.1430    2.8080 C   0  0  0  0  0
   -3.6860    0.3970    2.5240 O   0  0  0  0  0
    2.3980    0.0990   -0.0690 O   0  0  0  0  0
   -0.4780    1.3010   -1.3870 O   0  0  0  0  0
    1.7220    0.4750   -0.9980 N   0  0  0  0  0
    2.2440   -0.2270    2.4500 C   0  0  0  0  0
    0.0170    1.3310   -2.7270 C   0  0  0  0  0
    0.5280    0.8330   -0.6070 C   0  0  0  0  0
    0.4920    0.6270    0.7960 C   0  0  0  0  0
    1.7270    0.1580    1.0890 C   0  0  0  0  0
    1.3180   -1.2750    3.0700 C   0  0  0  0  0
    2.2870    1.0090    3.3490 C   0  0  0  0  0
    3.6530   -0.8080    2.3150 C   0  0  0  0  0
   -0.3310   -0.2630   -3.5390 P   0  0  0  0  0
   -1.7930   -0.4970   -3.5590 O   0  0  0  0  0
    0.2260   -0.2300   -5.0490 O   0  0  0  0  0
    0.3900   -1.4490   -2.7260 O   0  0  0  0  0
   -2.7390    0.3720    0.2740 H   0  0  0  0  0
   -1.4740   -0.4960   -0.2420 H   0  0  0  0  0
   -0.2630    1.0500    2.7460 H   0  0  0  0  0
   -1.2070    1.7590    1.4140 H   0  0  0  0  0
   -3.1120   -0.4530    4.7360 H   0  0  0  0  0
   -1.0050   -1.2310    1.9780 H   0  0  0  0  0
   -0.4710    2.1340   -3.2780 H   0  0  0  0  0
    1.0930    1.5030   -2.7130 H   0  0  0  0  0
    1.7550   -1.6440    3.9980 H   0  0  0  0  0
    0.3470   -0.8250    3.2790 H   0  0  0  0  0
    1.1910   -2.1050    2.3740 H   0  0  0  0  0
    1.2720    1.3680    3.5230 H   0  0  0  0  0
    2.7490    0.7510    4.3020 H   0  0  0  0  0
    2.8700    1.7920    2.8630 H   0  0  0  0  0
    3.6380   -1.6360    1.6070 H   0  0  0  0  0
    4.3320   -0.0350    1.9550 H   0  0  0  0  0
    3.9930   -1.1660    3.2860 H   0  0  0  0  0
    0.0220   -1.0890   -5.4420 H   0  0  0  0  0
    1.3380   -1.2590   -2.7370 H   0  0  0  0  0
  1  4  1  0  0  0
  1 22  1  0  0  0
  1 23  1  0  0  0
  2  4  1  0  0  0
  2 13  1  0  0  0
  2 24  1  0  0  0
  2 25  1  0  0  0
  3  5  1  0  0  0
  3 26  1  0  0  0
  4  5  1  0  0  0
  4 27  1  0  0  0
  5  6  2  0  0  0
  7  9  1  0  0  0
  7 14  1  0  0  0
  8 11  1  0  0  0
  8 12  1  0  0  0
  9 12  2  0  0  0
 10 14  1  0  0  0
 10 15  1  0  0  0
 10 16  1  0  0  0
 10 17  1  0  0  0
 11 18  1  0  0  0
 11 28  1  0  0  0
 11 29  1  0  0  0
 12 13  1  0  0  0
 13 14  2  0  0  0
 15 30  1  0  0  0
 15 31  1  0  0  0
 15 32  1  0  0  0
 16 33  1  0  0  0
 16 34  1  0  0  0
 16 35  1  0  0  0
 17 36  1  0  0  0
 17 37  1  0  0  0
 17 38  1  0  0  0
 18 19  2  0  0  0
 18 20  1  0  0  0
 18 21  1  0  0  0
 20 39  1  0  0  0
 21 40  1  0  0  0
M  END
$$$$
