AUK
  CCTOOLS-0919241030

 61 62  0  0  0  0  0  0  0  0999 V2000
   -2.8980    1.0500   -1.8940 O   0  0  0  0  0
   -3.3480    0.6280   -0.8410 C   0  0  0  0  0
   -2.9990    1.2250    0.3930 C   0  0  0  0  0
   -3.5090    0.7420    1.5450 C   0  0  0  0  0
   -3.1170    1.4010    2.8430 C   0  0  0  0  0
   -4.3600   -0.3110    1.5810 N   0  0  0  0  0
   -4.8530   -0.7590    2.8300 O   0  0  0  0  0
   -4.7580   -0.9570    0.4310 C   0  0  0  0  0
   -5.6330   -2.0380    0.4790 C   0  0  0  0  0
   -6.0120   -2.6620   -0.6900 C   0  0  0  0  0
   -5.5290   -2.2240   -1.9150 C   0  0  0  0  0
   -4.6680   -1.1640   -1.9840 C   0  0  0  0  0
   -4.2770   -0.5150   -0.8140 C   0  0  0  0  0
   -2.0570    2.4000    0.4210 C   0  0  0  0  0
   -0.6340    1.9040    0.4240 C   0  0  0  0  0
    0.1930    2.2800   -0.5200 C   0  0  0  0  0
   -0.3110    3.0940   -1.6830 C   0  0  0  0  0
    1.6490    1.8980   -0.4420 C   0  0  0  0  0
    1.8840    0.6200   -1.2500 C   0  0  0  0  0
    3.3400    0.2380   -1.1730 C   0  0  0  0  0
    3.6870   -0.9220   -0.6720 C   0  0  0  0  0
    2.6480   -1.8100   -0.0370 C   0  0  0  0  0
    5.1250   -1.3680   -0.7300 C   0  0  0  0  0
    5.8260   -1.0030    0.5800 C   0  0  0  0  0
    7.2640   -1.4490    0.5210 C   0  0  0  0  0
    8.2280   -0.5630    0.5770 C   0  0  0  0  0
    7.8980    0.9060    0.6320 C   0  0  0  0  0
    9.6660   -1.0130    0.5880 C   0  0  0  0  0
   -3.8210    2.2020    3.0710 H   0  0  0  0  0
   -3.1340    0.6630    3.6450 H   0  0  0  0  0
   -2.1130    1.8150    2.7510 H   0  0  0  0  0
   -5.4540   -1.5140    2.7680 H   0  0  0  0  0
   -6.0140   -2.3860    1.4280 H   0  0  0  0  0
   -6.6910   -3.5010   -0.6520 H   0  0  0  0  0
   -5.8360   -2.7250   -2.8220 H   0  0  0  0  0
   -4.2960   -0.8280   -2.9410 H   0  0  0  0  0
   -2.2230    3.0210   -0.4590 H   0  0  0  0  0
   -2.2380    2.9900    1.3200 H   0  0  0  0  0
   -0.2960    1.2380    1.2040 H   0  0  0  0  0
   -0.3200    4.1500   -1.4110 H   0  0  0  0  0
    0.3440    2.9460   -2.5420 H   0  0  0  0  0
   -1.3220    2.7760   -1.9380 H   0  0  0  0  0
    2.2580    2.7040   -0.8510 H   0  0  0  0  0
    1.9240    1.7260    0.5980 H   0  0  0  0  0
    1.2750   -0.1860   -0.8410 H   0  0  0  0  0
    1.6090    0.7920   -2.2910 H   0  0  0  0  0
    4.0970    0.9200   -1.5300 H   0  0  0  0  0
    2.1620   -2.4090   -0.8080 H   0  0  0  0  0
    3.1270   -2.4690    0.6870 H   0  0  0  0  0
    1.9040   -1.1950    0.4680 H   0  0  0  0  0
    5.1660   -2.4470   -0.8760 H   0  0  0  0  0
    5.6270   -0.8710   -1.5610 H   0  0  0  0  0
    5.7860    0.0760    0.7250 H   0  0  0  0  0
    5.3250   -1.5000    1.4110 H   0  0  0  0  0
    7.5010   -2.4990    0.4330 H   0  0  0  0  0
    7.7070    1.1980    1.6640 H   0  0  0  0  0
    8.7370    1.4820    0.2410 H   0  0  0  0  0
    7.0110    1.1020    0.0290 H   0  0  0  0  0
    9.7060   -2.1020    0.5440 H   0  0  0  0  0
   10.1840   -0.5950   -0.2750 H   0  0  0  0  0
   10.1480   -0.6690    1.5030 H   0  0  0  0  0
  1  2  2  0  0  0
  2  3  1  0  0  0
  2 13  1  0  0  0
  3  4  2  0  0  0
  3 14  1  0  0  0
  4  5  1  0  0  0
  4  6  1  0  0  0
  5 29  1  0  0  0
  5 30  1  0  0  0
  5 31  1  0  0  0
  6  7  1  0  0  0
  6  8  1  0  0  0
  7 32  1  0  0  0
  8  9  2  0  0  0
  8 13  1  0  0  0
  9 10  1  0  0  0
  9 33  1  0  0  0
 10 11  2  0  0  0
 10 34  1  0  0  0
 11 12  1  0  0  0
 11 35  1  0  0  0
 12 13  2  0  0  0
 12 36  1  0  0  0
 14 15  1  0  0  0
 14 37  1  0  0  0
 14 38  1  0  0  0
 15 16  2  0  0  0
 15 39  1  0  0  0
 16 17  1  0  0  0
 16 18  1  0  0  0
 17 40  1  0  0  0
 17 41  1  0  0  0
 17 42  1  0  0  0
 18 19  1  0  0  0
 18 43  1  0  0  0
 18 44  1  0  0  0
 19 20  1  0  0  0
 19 45  1  0  0  0
 19 46  1  0  0  0
 20 21  2  0  0  0
 20 47  1  0  0  0
 21 22  1  0  0  0
 21 23  1  0  0  0
 22 48  1  0  0  0
 22 49  1  0  0  0
 22 50  1  0  0  0
 23 24  1  0  0  0
 23 51  1  0  0  0
 23 52  1  0  0  0
 24 25  1  0  0  0
 24 53  1  0  0  0
 24 54  1  0  0  0
 25 26  2  0  0  0
 25 55  1  0  0  0
 26 27  1  0  0  0
 26 28  1  0  0  0
 27 56  1  0  0  0
 27 57  1  0  0  0
 27 58  1  0  0  0
 28 59  1  0  0  0
 28 60  1  0  0  0
 28 61  1  0  0  0
M  END
$$$$
