AV2
  CCTOOLS-0919241030

 44 47  0  0  1  0  0  0  0  0999 V2000
   -6.2040   -1.2650    0.5460 P   0  0  0  0  0
   -7.1630   -0.5500   -0.3260 O   0  0  0  0  0
   -6.8130   -1.3810    2.0320 O   0  0  0  0  0
   -5.9390   -2.7400   -0.0420 O   0  0  0  0  0
   -3.9440    0.3440   -0.4980 P   0  0  0  0  0
   -3.9490   -0.4090   -1.7720 O   0  0  0  0  0
   -4.5800    1.8040   -0.7350 O   0  0  0  0  0
   -4.8160   -0.4500    0.5980 O   0  0  0  0  0
   -2.4300    0.4970    0.0290 O   0  0  0  0  0
   -1.3840    1.0640   -0.7620 C   0  0  0  0  0
   -0.0800    1.0580    0.0370 C   0  0  0  0  0
    0.3690   -0.2960    0.2710 O   0  0  0  0  0
    1.0720    1.6700   -0.7930 C   0  0  0  0  0
    0.9870    3.1030   -0.7780 O   0  0  0  0  0
    2.3210    1.0420   -0.1530 C   0  0  0  0  0
    2.8910    1.8730    0.9020 O   0  0  0  0  0
    1.7810   -0.2340    0.5340 C   0  0  0  0  0
    2.4440   -1.4170   -0.0210 N   0  0  0  0  0
    1.9830   -2.1960   -1.0390 C   0  0  0  0  0
    2.8220   -3.1620   -1.2760 N   0  0  0  0  0
    3.8730   -3.0640   -0.4250 C   0  0  0  0  0
    5.0490   -3.8040   -0.2190 C   0  0  0  0  0
    5.3300   -4.9170   -0.9910 N   0  0  0  0  0
    5.8860   -3.4100    0.7360 N   0  0  0  0  0
    5.6260   -2.3490    1.4770 C   0  0  0  0  0
    4.5370   -1.6260    1.3200 N   0  0  0  0  0
    3.6450   -1.9400    0.3860 C   0  0  0  0  0
    2.5410    3.5580    0.1600 V   0  0  0  0  0
    2.2540    4.6430    1.2770 O   0  0  0  0  0
    3.8870    4.0970   -0.9730 O   0  0  0  0  0
   -7.6520   -1.8610    2.0760 H   0  0  0  0  0
   -5.3190   -3.2660    0.4800 H   0  0  0  0  0
   -4.6080    2.3540    0.0600 H   0  0  0  0  0
   -1.2570    0.4770   -1.6710 H   0  0  0  0  0
   -1.6440    2.0890   -1.0260 H   0  0  0  0  0
   -0.2040    1.5910    0.9790 H   0  0  0  0  0
    0.9930    1.3180   -1.8210 H   0  0  0  0  0
    3.0700    0.8080   -0.9100 H   0  0  0  0  0
    1.9560   -0.1780    1.6090 H   0  0  0  0  0
    1.0570   -2.0360   -1.5720 H   0  0  0  0  0
    4.7120   -5.1950   -1.6850 H   0  0  0  0  0
    6.1460   -5.4200   -0.8390 H   0  0  0  0  0
    6.3330   -2.0640    2.2430 H   0  0  0  0  0
    4.7070    4.3400   -0.5220 H   0  0  0  0  0
  1  2  2  0  0  0
  1  3  1  0  0  0
  1  4  1  0  0  0
  1  8  1  0  0  0
  3 31  1  0  0  0
  4 32  1  0  0  0
  5  6  2  0  0  0
  5  7  1  0  0  0
  5  8  1  0  0  0
  5  9  1  0  0  0
  7 33  1  0  0  0
  9 10  1  0  0  0
 10 11  1  0  0  0
 10 34  1  0  0  0
 10 35  1  0  0  0
 11 12  1  0  0  0
 11 13  1  0  0  0
 11 36  1  0  0  0
 12 17  1  0  0  0
 13 14  1  0  0  0
 13 15  1  0  0  0
 13 37  1  0  0  0
 14 28  1  0  0  0
 15 16  1  0  0  0
 15 17  1  0  0  0
 15 38  1  0  0  0
 16 28  1  0  0  0
 17 18  1  0  0  0
 17 39  1  0  0  0
 18 19  1  0  0  0
 18 27  1  0  0  0
 19 20  2  0  0  0
 19 40  1  0  0  0
 20 21  1  0  0  0
 21 22  2  0  0  0
 21 27  1  0  0  0
 22 23  1  0  0  0
 22 24  1  0  0  0
 23 41  1  0  0  0
 23 42  1  0  0  0
 24 25  2  0  0  0
 25 26  1  0  0  0
 25 43  1  0  0  0
 26 27  2  0  0  0
 28 29  2  0  0  0
 28 30  1  0  0  0
 30 44  1  0  0  0
M  END
$$$$
