AVX
  CCTOOLS-0919241030

 27 29  0  0  0  0  0  0  0  0999 V2000
   -0.2750    1.7450    0.0580 C   0  0  0  0  0
   -0.7450    0.4340    0.0250 C   0  0  0  0  0
    0.1580   -0.6270    0.0090 C   0  0  0  0  0
    1.5160   -0.3780    0.0240 C   0  0  0  0  0
    1.9860    0.9270    0.0570 C   0  0  0  0  0
    1.0870    1.9910    0.0730 C   0  0  0  0  0
    1.7930    3.1590    0.1040 O   0  0  0  0  0
    3.1290    2.8110   -0.3070 C   0  0  0  0  0
    3.2560    1.4290    0.0780 O   0  0  0  0  0
   -2.2050    0.1680    0.0090 C   0  0  0  0  0
   -3.1560    1.0780    0.0230 N   0  0  0  0  0
   -4.3930    0.4220   -0.0010 N   0  0  0  0  0
   -4.1600   -0.9160   -0.0280 C   0  0  0  0  0
   -2.8130   -1.1010   -0.0290 C   0  0  0  0  0
    2.7390   -1.8210    0.0010 BR  0  0  0  0  0
   -5.7090    1.0660    0.0050 C   0  0  0  0  0
   -5.1260   -1.9180   -0.0570 N   0  0  0  0  0
   -0.9730    2.5690    0.0670 H   0  0  0  0  0
   -0.2050   -1.6440   -0.0160 H   0  0  0  0  0
    3.2380    2.9200   -1.3860 H   0  0  0  0  0
    3.8620    3.4230    0.2180 H   0  0  0  0  0
   -2.3000   -2.0510   -0.0510 H   0  0  0  0  0
   -6.0280    1.2480   -1.0210 H   0  0  0  0  0
   -6.4300    0.4160    0.5000 H   0  0  0  0  0
   -5.6470    2.0140    0.5400 H   0  0  0  0  0
   -6.0670   -1.6840   -0.0580 H   0  0  0  0  0
   -4.8580   -2.8500   -0.0750 H   0  0  0  0  0
  1  2  2  0  0  0
  1  6  1  0  0  0
  1 18  1  0  0  0
  2  3  1  0  0  0
  2 10  1  0  0  0
  3  4  2  0  0  0
  3 19  1  0  0  0
  4  5  1  0  0  0
  4 15  1  0  0  0
  5  6  2  0  0  0
  5  9  1  0  0  0
  6  7  1  0  0  0
  7  8  1  0  0  0
  8  9  1  0  0  0
  8 20  1  0  0  0
  8 21  1  0  0  0
 10 11  2  0  0  0
 10 14  1  0  0  0
 11 12  1  0  0  0
 12 13  1  0  0  0
 12 16  1  0  0  0
 13 14  2  0  0  0
 13 17  1  0  0  0
 14 22  1  0  0  0
 16 23  1  0  0  0
 16 24  1  0  0  0
 16 25  1  0  0  0
 17 26  1  0  0  0
 17 27  1  0  0  0
M  END
$$$$
