AYX
  CCTOOLS-0919241031

 35 36  0  0  0  0  0  0  0  0999 V2000
   -3.7550    0.0140   -0.0440 C   0  0  0  0  0
   -6.2520    0.1750    1.1020 N   0  0  0  0  0
   -5.9100   -0.8450   -1.1190 O   0  0  0  0  0
   -5.3010   -0.8040    0.1640 S   0  0  0  0  0
   -2.7320   -0.2030    0.8600 C   0  0  0  0  0
   -5.0380   -1.9670    0.9370 O   0  0  0  0  0
   -1.5180    0.4370    0.6980 C   0  0  0  0  0
   -1.3270    1.2990   -0.3730 C   0  0  0  0  0
   -2.3570    1.5150   -1.2790 C   0  0  0  0  0
   -3.5660    0.8690   -1.1150 C   0  0  0  0  0
   -0.0990    1.9490   -0.5390 N   0  0  0  0  0
    1.0430    1.3370   -0.1680 C   0  0  0  0  0
    1.0170    0.1860    0.2230 O   0  0  0  0  0
    2.2150    2.0010   -0.2300 N   0  0  0  0  0
    3.4120    1.3350    0.0510 C   0  0  0  0  0
    3.5530   -0.0080   -0.2720 C   0  0  0  0  0
    4.7370   -0.6640    0.0060 C   0  0  0  0  0
    5.7810    0.0160    0.6050 C   0  0  0  0  0
    5.6440    1.3540    0.9290 C   0  0  0  0  0
    4.4650    2.0160    0.6480 C   0  0  0  0  0
    4.8890   -2.0950   -0.3380 N   0  3  0  0  0
    5.9320   -2.6730   -0.0940 O   0  0  0  0  0
    3.9690   -2.6950   -0.8670 O   0  5  0  0  0
    2.7380   -0.5400   -0.7400 H   0  0  0  0  0
   -7.2160    0.1640    0.9940 H   0  0  0  0  0
    6.7060   -0.4980    0.8220 H   0  0  0  0  0
    6.4610    1.8830    1.3980 H   0  0  0  0  0
    4.3580    3.0610    0.9010 H   0  0  0  0  0
   -2.8810   -0.8740    1.6930 H   0  0  0  0  0
   -0.7190    0.2670    1.4050 H   0  0  0  0  0
   -2.2110    2.1860   -2.1130 H   0  0  0  0  0
   -4.3670    1.0360   -1.8190 H   0  0  0  0  0
   -0.0690    2.8400   -0.9210 H   0  0  0  0  0
    2.2270    2.9410   -0.4690 H   0  0  0  0  0
   -5.8450    0.7610    1.7600 H   0  0  0  0  0
  1  4  1  0  0  0
  2 25  1  0  0  0
  2  4  1  0  0  0
  2 35  1  0  0  0
  3  4  2  0  0  0
  4  6  2  0  0  0
  5  1  2  0  0  0
  5 29  1  0  0  0
  7  5  1  0  0  0
  8  7  2  0  0  0
  8  9  1  0  0  0
  9 10  2  0  0  0
 10  1  1  0  0  0
 10 32  1  0  0  0
 11  8  1  0  0  0
 12 11  1  0  0  0
 13 12  2  0  0  0
 14 12  1  0  0  0
 14 34  1  0  0  0
 15 14  1  0  0  0
 16 15  2  0  0  0
 16 24  1  0  0  0
 17 16  1  0  0  0
 18 17  2  0  0  0
 18 19  1  0  0  0
 19 20  2  0  0  0
 20 15  1  0  0  0
 20 28  1  0  0  0
 21 17  1  0  0  0
 21 23  1  0  0  0
 22 21  2  0  0  0
 26 18  1  0  0  0
 27 19  1  0  0  0
 30  7  1  0  0  0
 31  9  1  0  0  0
 33 11  1  0  0  0
M  CHG  1  21   1
M  CHG  1  23  -1
M  END
$$$$
