AZG
  CCTOOLS-0919241031

 15 16  0  0  0  0  0  0  0  0999 V2000
   -0.9850   -0.0030   -0.4900 C   0  0  0  0  0
   -1.3800   -0.0120    0.7840 N   0  0  0  0  0
   -0.4890    0.0010    1.7600 C   0  0  0  0  0
   -0.9350   -0.0020    3.0720 N   0  0  0  0  0
    0.8180    0.0150    1.5280 N   0  0  0  0  0
    1.2950    0.0200    0.2900 C   0  0  0  0  0
    2.6310    0.0330    0.0640 O   0  0  0  0  0
    0.3920    0.0100   -0.7740 C   0  0  0  0  0
    0.4810    0.0110   -2.1430 N   0  0  0  0  0
   -0.7160   -0.0010   -2.6200 N   0  0  0  0  0
   -1.6000   -0.0100   -1.6850 N   0  0  0  0  0
   -0.2960    0.0040    3.8010 H   0  0  0  0  0
   -1.8860   -0.0080    3.2610 H   0  0  0  0  0
    2.9160   -0.8890    0.0170 H   0  0  0  0  0
    1.3010    0.0190   -2.6610 H   0  0  0  0  0
  1  2  1  0  0  0
  1  8  2  0  0  0
  1 11  1  0  0  0
  2  3  2  0  0  0
  3  4  1  0  0  0
  3  5  1  0  0  0
  4 12  1  0  0  0
  4 13  1  0  0  0
  5  6  2  0  0  0
  6  7  1  0  0  0
  6  8  1  0  0  0
  7 14  1  0  0  0
  8  9  1  0  0  0
  9 10  1  0  0  0
  9 15  1  0  0  0
 10 11  2  0  0  0
M  END
$$$$
