AZI
  CCTOOLS-1004241127

  3  2  0  0  0  0  0  0  0  0999 V2000
   -1.1240    0.0000    0.0000 N   0  5  0  0  0
    0.0000    0.0000    0.0000 N   0  3  0  0  0
    1.1240    0.0000    0.0000 N   0  5  0  0  0
  1  2  2  0  0  0
  2  3  2  0  0  0
M  CHG  1   1  -1
M  CHG  1   2   1
M  CHG  1   3  -1
M  END
$$$$
