AZS
  CCTOOLS-1004241127

 19 18  0  0  1  0  0  0  0  0999 V2000
   -3.4710   -1.3740   -0.7400 O   0  0  0  0  0
   -3.1050   -0.2930   -0.0330 C   0  0  0  0  0
   -3.7590    0.0530    0.9220 O   0  0  0  0  0
   -1.8800    0.4880   -0.4300 C   0  0  0  0  0
   -1.9490    1.8360    0.1490 N   0  0  0  0  0
   -0.6290   -0.2260    0.0880 C   0  0  0  0  0
    0.5360    0.4500   -0.3870 O   0  0  0  0  0
    1.7340   -0.0570   -0.0170 C   0  0  0  0  0
    2.9170    0.5560   -0.4460 C   0  0  0  0  0
    4.0240    0.0860   -0.1040 N   0  3  0  0  0
    5.0200   -0.3350    0.2040 N   0  5  0  0  0
    1.7830   -1.0480    0.6910 O   0  0  0  0  0
   -4.2640   -1.8430   -0.4470 H   0  0  0  0  0
   -1.8320    0.5620   -1.5170 H   0  0  0  0  0
   -2.7310    2.3520   -0.2270 H   0  0  0  0  0
   -1.9940    1.7950    1.1560 H   0  0  0  0  0
   -0.6340   -0.2210    1.1780 H   0  0  0  0  0
   -0.6240   -1.2550   -0.2710 H   0  0  0  0  0
    2.8740    1.4340   -1.0730 H   0  0  0  0  0
  1 13  1  0  0  0
  1  2  1  0  0  0
  2  3  2  0  0  0
  2  4  1  0  0  0
  4 14  1  0  0  0
  4  5  1  0  0  0
  4  6  1  0  0  0
  5 15  1  0  0  0
  5 16  1  0  0  0
  6 17  1  0  0  0
  6 18  1  0  0  0
  6  7  1  0  0  0
  7  8  1  0  0  0
  8 12  2  0  0  0
  8  9  1  0  0  0
  9 19  1  0  0  0
  9 10  2  0  0  0
 10 11  2  0  0  0
M  CHG  1  10   1
M  CHG  1  11  -1
M  END
$$$$
