AZZ
  CCTOOLS-0919241031

 32 33  0  0  1  0  0  0  0  0999 V2000
    2.8980    3.3240    0.0130 O   0  0  0  0  0
    2.9240    1.9940   -0.5080 C   0  0  0  0  0
    2.2320    1.0480    0.4750 C   0  0  0  0  0
    0.8230    1.3500    0.5650 O   0  0  0  0  0
    2.2570   -0.4070   -0.0590 C   0  0  0  0  0
    3.4990   -1.0830    0.3220 N   0  0  0  0  0
    3.7150   -2.1190   -0.0570 N   0  3  0  0  0
    3.9300   -3.1550   -0.4360 N   0  5  0  0  0
    1.0410   -1.0380    0.6630 C   0  0  0  0  0
    0.1720    0.1690    1.0650 C   0  0  0  0  0
   -1.1600    0.0450    0.4690 N   0  0  0  0  0
   -1.2970    0.0730   -0.8700 C   0  0  0  0  0
   -0.3110    0.2010   -1.5700 O   0  0  0  0  0
   -2.5090   -0.0390   -1.4440 N   0  0  0  0  0
   -3.6120   -0.1820   -0.6810 C   0  0  0  0  0
   -4.7090   -0.2840   -1.2000 O   0  0  0  0  0
   -3.4820   -0.2130    0.7280 C   0  0  0  0  0
   -4.6990   -0.3720    1.6030 C   0  0  0  0  0
   -2.2540   -0.1040    1.2780 C   0  0  0  0  0
    3.3200    3.9790   -0.5600 H   0  0  0  0  0
    2.4030    1.9680   -1.4650 H   0  0  0  0  0
    3.9580    1.6790   -0.6490 H   0  0  0  0  0
    2.7010    1.1070    1.4570 H   0  0  0  0  0
    2.1210   -0.4270   -1.1400 H   0  0  0  0  0
    0.4930   -1.6940   -0.0140 H   0  0  0  0  0
    1.3650   -1.5860    1.5480 H   0  0  0  0  0
    0.0910    0.2230    2.1510 H   0  0  0  0  0
   -2.5890   -0.0170   -2.4100 H   0  0  0  0  0
   -5.5890   -0.4470    0.9790 H   0  0  0  0  0
   -4.5990   -1.2760    2.2040 H   0  0  0  0  0
   -4.7890    0.4930    2.2600 H   0  0  0  0  0
   -2.1350   -0.1300    2.3510 H   0  0  0  0  0
  1  2  1  0  0  0
  1 20  1  0  0  0
  2  3  1  0  0  0
  2 21  1  0  0  0
  2 22  1  0  0  0
  3  4  1  0  0  0
  3  5  1  0  0  0
  3 23  1  0  0  0
  4 10  1  0  0  0
  5  6  1  0  0  0
  5  9  1  0  0  0
  5 24  1  0  0  0
  6  7  2  0  0  0
  7  8  2  0  0  0
  9 10  1  0  0  0
  9 25  1  0  0  0
  9 26  1  0  0  0
 10 11  1  0  0  0
 10 27  1  0  0  0
 11 12  1  0  0  0
 11 19  1  0  0  0
 12 13  2  0  0  0
 12 14  1  0  0  0
 14 15  1  0  0  0
 14 28  1  0  0  0
 15 16  2  0  0  0
 15 17  1  0  0  0
 17 18  1  0  0  0
 17 19  2  0  0  0
 18 29  1  0  0  0
 18 30  1  0  0  0
 18 31  1  0  0  0
 19 32  1  0  0  0
M  CHG  1   7   1
M  CHG  1   8  -1
M  END
$$$$
