B3A
  CCTOOLS-1004241127

 16 15  0  0  1  0  0  0  0  0999 V2000
    0.1100   -0.3930   -1.0170 C   0  0  0  0  0
    1.5820   -0.6180   -1.3610 C   0  0  0  0  0
    2.3010    0.6470   -1.1990 N   0  0  0  0  0
    1.7700   -1.1180   -2.7950 C   0  0  0  0  0
    1.0750   -2.4400   -3.0190 C   0  0  0  0  0
    1.3460   -3.4640   -2.4060 O   0  0  0  0  0
    0.0970   -2.3710   -3.9550 O   0  0  0  0  0
   -0.3590    0.3190   -1.7060 H   0  0  0  0  0
    0.0000   -0.0000    0.0000 H   0  0  0  0  0
   -0.4530   -1.3300   -1.0650 H   0  0  0  0  0
    1.9980   -1.3480   -0.6560 H   0  0  0  0  0
    3.1420    0.6400   -0.6660 H   0  0  0  0  0
    1.8270    1.4860   -1.4470 H   0  0  0  0  0
    2.8320   -1.2870   -3.0150 H   0  0  0  0  0
    1.4300   -0.3790   -3.5300 H   0  0  0  0  0
   -0.3930   -3.2050   -4.1180 H   0  0  0  0  0
  1  2  1  0  0  0
  1  8  1  0  0  0
  1  9  1  0  0  0
  1 10  1  0  0  0
  2  3  1  0  0  0
  2  4  1  0  0  0
  2 11  1  0  0  0
  3 12  1  0  0  0
  3 13  1  0  0  0
  4  5  1  0  0  0
  4 14  1  0  0  0
  4 15  1  0  0  0
  5  7  1  0  0  0
  5  6  2  0  0  0
  7 16  1  0  0  0
M  END
$$$$
