B3D
  CCTOOLS-1004241127

 19 18  0  0  0  0  0  0  0  0999 V2000
    3.6890   -0.6470    0.0770 O   0  0  0  0  0
    2.4710   -0.0860    0.1470 C   0  0  0  0  0
    2.3600    1.0850    0.4210 O   0  0  0  0  0
    1.2420   -0.9180   -0.1170 C   0  0  0  0  0
   -0.0050   -0.0450    0.0250 C   0  0  0  0  0
   -0.0030    0.9870   -1.0200 N   0  0  0  0  0
   -1.2560   -0.9140   -0.1200 C   0  0  0  0  0
   -2.4820   -0.0780    0.1420 C   0  0  0  0  0
   -2.3680    1.0930    0.4170 O   0  0  0  0  0
   -3.7020   -0.6340    0.0710 O   0  0  0  0  0
    4.4470   -0.0730    0.2550 H   0  0  0  0  0
    1.2880   -1.3240   -1.1280 H   0  0  0  0  0
    1.1970   -1.7370    0.6010 H   0  0  0  0  0
   -0.0050    0.4310    1.0060 H   0  0  0  0  0
    0.7800    1.6150   -0.9070 H   0  0  0  0  0
   -0.0030    0.5710   -1.9390 H   0  0  0  0  0
   -1.3020   -1.3190   -1.1300 H   0  0  0  0  0
   -1.2140   -1.7330    0.5990 H   0  0  0  0  0
   -4.4580   -0.0580    0.2470 H   0  0  0  0  0
  1  2  1  0  0  0
  1 11  1  0  0  0
  2  3  2  0  0  0
  2  4  1  0  0  0
  4  5  1  0  0  0
  4 12  1  0  0  0
  4 13  1  0  0  0
  5  6  1  0  0  0
  5  7  1  0  0  0
  5 14  1  0  0  0
  6 15  1  0  0  0
  6 16  1  0  0  0
  7  8  1  0  0  0
  7 17  1  0  0  0
  7 18  1  0  0  0
  8 10  1  0  0  0
  8  9  2  0  0  0
 10 19  1  0  0  0
M  END
$$$$
