B3E
  CCTOOLS-1004241127

 22 21  0  0  1  0  0  0  0  0999 V2000
    1.1250   -1.9600    0.0180 N   0  0  0  0  0
    0.9510   -3.3390    0.4840 C   0  0  0  0  0
   -0.4370   -3.8670    0.0640 C   0  0  0  0  0
   -1.6150   -3.0350    0.5860 C   0  0  0  0  0
   -2.9620   -3.6170    0.2190 C   0  0  0  0  0
   -3.1440   -4.6070   -0.4760 O   0  0  0  0  0
   -3.9780   -2.9120    0.7830 O   0  0  0  0  0
    2.0810   -4.2050   -0.0910 C   0  0  0  0  0
    2.0140   -5.6330    0.3870 C   0  0  0  0  0
    1.5210   -5.9890    1.4480 O   0  0  0  0  0
    2.5830   -6.4780   -0.5070 O   0  0  0  0  0
    1.9090   -1.4510    0.3560 H   0  0  0  0  0
    0.3580   -1.5280   -0.4450 H   0  0  0  0  0
    1.0210   -3.3340    1.5780 H   0  0  0  0  0
   -0.4980   -3.9170   -1.0300 H   0  0  0  0  0
   -0.5570   -4.8970    0.4260 H   0  0  0  0  0
   -1.5540   -2.0080    0.2130 H   0  0  0  0  0
   -1.5650   -3.0070    1.6810 H   0  0  0  0  0
   -4.8770   -3.2560    0.5930 H   0  0  0  0  0
    2.0480   -4.2280   -1.1880 H   0  0  0  0  0
    3.0640   -3.7990    0.1800 H   0  0  0  0  0
    2.5510   -7.4100   -0.2010 H   0  0  0  0  0
  1  2  1  0  0  0
  1 12  1  0  0  0
  1 13  1  0  0  0
  2  3  1  0  0  0
  2  8  1  0  0  0
  2 14  1  0  0  0
  3  4  1  0  0  0
  3 15  1  0  0  0
  3 16  1  0  0  0
  4  5  1  0  0  0
  4 17  1  0  0  0
  4 18  1  0  0  0
  5  6  2  0  0  0
  5  7  1  0  0  0
  7 19  1  0  0  0
  8  9  1  0  0  0
  8 20  1  0  0  0
  8 21  1  0  0  0
  9 11  1  0  0  0
  9 10  2  0  0  0
 11 22  1  0  0  0
M  END
$$$$
