B3Q
  CCTOOLS-1004241127

 23 22  0  0  1  0  0  0  0  0999 V2000
   -0.7150    1.2890    0.9260 N   0  0  0  0  0
   -0.5840    0.2270   -0.0810 C   0  0  0  0  0
    0.7760   -0.4580    0.0740 C   0  0  0  0  0
   -1.6990   -0.8030    0.1160 C   0  0  0  0  0
   -3.0330   -0.1570   -0.1560 C   0  0  0  0  0
   -3.0860    1.0070   -0.4750 O   0  0  0  0  0
   -0.6460    0.9120    1.8590 H   0  0  0  0  0
   -0.6620    0.6600   -1.0780 H   0  0  0  0  0
    0.8890   -0.8130    1.0980 H   0  0  0  0  0
    0.8370   -1.3020   -0.6130 H   0  0  0  0  0
   -1.5500   -1.6350   -0.5720 H   0  0  0  0  0
   -1.6760   -1.1710    1.1420 H   0  0  0  0  0
   -0.0290    2.0140    0.7770 H   0  0  0  0  0
    1.8890    0.5420   -0.2460 C   0  0  0  0  0
   -4.1610   -0.8760   -0.0450 O   0  0  0  0  0
    3.2280   -0.1320   -0.0940 C   0  0  0  0  0
    1.7760    0.8970   -1.2700 H   0  0  0  0  0
    1.8270    1.3860    0.4410 H   0  0  0  0  0
   -4.9930   -0.4180   -0.2290 H   0  0  0  0  0
    4.3610    0.5600   -0.3260 N   0  0  0  0  0
    3.2860   -1.2980    0.2380 O   0  0  0  0  0
    4.3150    1.4920   -0.5900 H   0  0  0  0  0
    5.2230    0.1260   -0.2280 H   0  0  0  0  0
  1  7  1  0  0  0
  1 13  1  0  0  0
  2  1  1  0  0  0
  2  3  1  0  0  0
  3  9  1  0  0  0
  3 10  1  0  0  0
  3 14  1  0  0  0
  4  2  1  0  0  0
  4 11  1  0  0  0
  5  4  1  0  0  0
  5 15  1  0  0  0
  6  5  2  0  0  0
  8  2  1  0  0  0
 12  4  1  0  0  0
 14 16  1  0  0  0
 14 17  1  0  0  0
 14 18  1  0  0  0
 15 19  1  0  0  0
 16 20  1  0  0  0
 16 21  2  0  0  0
 20 22  1  0  0  0
 20 23  1  0  0  0
M  END
$$$$
