B49
  CCTOOLS-0919241031

 56 58  0  0  0  0  0  0  0  0999 V2000
    1.1170    3.1730   -0.2590 C   0  0  0  0  0
   -7.4890   -0.6990    0.7420 C   0  0  0  0  0
   -6.7280    0.1330    1.5380 C   0  0  0  0  0
   -5.5930   -1.1420   -0.6590 C   0  0  0  0  0
    0.0250   -0.2630   -1.1530 C   0  0  0  0  0
   -6.9270   -1.3370   -0.3540 C   0  0  0  0  0
   -4.8190   -0.3040    0.1380 C   0  0  0  0  0
   -3.3990    0.1110    0.0940 C   0  0  0  0  0
   -3.2300    1.0160    1.2390 C   0  0  0  0  0
    2.4770    0.5200   -1.2330 C   0  0  0  0  0
    0.2130   -1.6880   -1.6060 C   0  0  0  0  0
   -2.4420   -0.2690   -0.8250 C   0  0  0  0  0
    0.4210    1.8710   -0.5620 C   0  0  0  0  0
   -5.3850    0.3410    1.2460 C   0  0  0  0  0
   -1.1690    0.3420   -0.8120 C   0  0  0  0  0
    1.0360    0.7090   -0.9910 C   0  0  0  0  0
   -0.9000    1.6470   -0.4560 N   0  0  0  0  0
   -4.4110    1.1130    1.8710 N   0  0  0  0  0
    3.2790    0.1000   -0.2350 N   0  0  0  0  0
   -2.1980    1.5790    1.5590 O   0  0  0  0  0
    2.9430    0.7430   -2.3340 O   0  0  0  0  0
   -7.6830   -2.1490   -1.1240 F   0  0  0  0  0
    1.1600    3.7810   -1.1630 H   0  0  0  0  0
    0.5660    3.7090    0.5130 H   0  0  0  0  0
    2.1300    2.9700    0.0910 H   0  0  0  0  0
   -8.5310   -0.8590    0.9780 H   0  0  0  0  0
   -7.1780    0.6240    2.3880 H   0  0  0  0  0
   -5.1530   -1.6380   -1.5110 H   0  0  0  0  0
    0.1280   -1.7390   -2.6910 H   0  0  0  0  0
    1.1990   -2.0390   -1.3020 H   0  0  0  0  0
   -0.5520   -2.3180   -1.1520 H   0  0  0  0  0
   -2.6660   -1.0350   -1.5540 H   0  0  0  0  0
   -1.5590    2.3000   -0.1750 H   0  0  0  0  0
   -4.5660    1.6520    2.6620 H   0  0  0  0  0
    2.9080   -0.0790    0.6430 H   0  0  0  0  0
    4.7120   -0.0880   -0.4760 C   0  0  0  0  0
    5.3870   -0.5660    0.8110 C   0  0  0  0  0
    6.8240   -0.7540    0.5700 N   0  0  0  0  0
    7.4820    0.5280    0.2850 C   0  0  0  0  0
    7.4640   -1.4340    1.7040 C   0  0  0  0  0
    7.1190   -2.9250    1.6660 C   0  0  0  0  0
    8.8510    0.2690   -0.3470 C   0  0  0  0  0
    4.8540   -0.8330   -1.2590 H   0  0  0  0  0
    5.1550    0.8580   -0.7890 H   0  0  0  0  0
    5.2450    0.1780    1.5940 H   0  0  0  0  0
    4.9440   -1.5120    1.1240 H   0  0  0  0  0
    6.8670    1.1070   -0.4040 H   0  0  0  0  0
    7.6100    1.0840    1.2140 H   0  0  0  0  0
    8.5450   -1.3100    1.6390 H   0  0  0  0  0
    7.1030   -1.0020    2.6370 H   0  0  0  0  0
    7.5690   -3.4240    2.5230 H   0  0  0  0  0
    6.0360   -3.0480    1.7000 H   0  0  0  0  0
    7.5050   -3.3640    0.7460 H   0  0  0  0  0
    8.7200   -0.2350   -1.3050 H   0  0  0  0  0
    9.3650    1.2170   -0.5030 H   0  0  0  0  0
    9.4440   -0.3610    0.3160 H   0  0  0  0  0
  1 13  1  0  0  0
  1 23  1  0  0  0
  1 24  1  0  0  0
  1 25  1  0  0  0
  2  3  2  0  0  0
  2  6  1  0  0  0
  2 26  1  0  0  0
  3 14  1  0  0  0
  3 27  1  0  0  0
  4  6  2  0  0  0
  4  7  1  0  0  0
  4 28  1  0  0  0
  5 11  1  0  0  0
  5 15  2  0  0  0
  5 16  1  0  0  0
  6 22  1  0  0  0
  7  8  1  0  0  0
  7 14  2  0  0  0
  8  9  1  0  0  0
  8 12  2  0  0  0
  9 18  1  0  0  0
  9 20  2  0  0  0
 10 16  1  0  0  0
 10 19  1  0  0  0
 10 21  2  0  0  0
 11 29  1  0  0  0
 11 30  1  0  0  0
 11 31  1  0  0  0
 12 15  1  0  0  0
 12 32  1  0  0  0
 13 16  2  0  0  0
 13 17  1  0  0  0
 14 18  1  0  0  0
 15 17  1  0  0  0
 17 33  1  0  0  0
 18 34  1  0  0  0
 19 35  1  0  0  0
 19 36  1  0  0  0
 36 37  1  0  0  0
 36 43  1  0  0  0
 36 44  1  0  0  0
 37 38  1  0  0  0
 37 45  1  0  0  0
 37 46  1  0  0  0
 38 39  1  0  0  0
 38 40  1  0  0  0
 39 42  1  0  0  0
 39 47  1  0  0  0
 39 48  1  0  0  0
 40 41  1  0  0  0
 40 49  1  0  0  0
 40 50  1  0  0  0
 41 51  1  0  0  0
 41 52  1  0  0  0
 41 53  1  0  0  0
 42 54  1  0  0  0
 42 55  1  0  0  0
 42 56  1  0  0  0
M  END
$$$$
