BAL
  CCTOOLS-1004241128

 13 12  0  0  0  0  0  0  0  0999 V2000
    2.7160   -0.2470   -0.0350 N   0  0  0  0  0
    1.4000    0.4050   -0.0140 C   0  0  0  0  0
    0.3020   -0.6610   -0.0220 C   0  0  0  0  0
   -1.0480    0.0080    0.0000 C   0  0  0  0  0
   -1.1240    1.2140    0.0200 O   0  0  0  0  0
   -2.1650   -0.7350   -0.0030 O   0  0  0  0  0
    3.4580    0.4360   -0.0310 H   0  0  0  0  0
    2.8130   -0.8910    0.7350 H   0  0  0  0  0
    1.3100    1.0130    0.8870 H   0  0  0  0  0
    1.2950    1.0410   -0.8930 H   0  0  0  0  0
    0.3920   -1.2680   -0.9230 H   0  0  0  0  0
    0.4070   -1.2970    0.8570 H   0  0  0  0  0
   -3.0080   -0.2610    0.0120 H   0  0  0  0  0
  1  2  1  0  0  0
  1  7  1  0  0  0
  1  8  1  0  0  0
  2  3  1  0  0  0
  2  9  1  0  0  0
  2 10  1  0  0  0
  3  4  1  0  0  0
  3 11  1  0  0  0
  3 12  1  0  0  0
  4  5  2  0  0  0
  4  6  1  0  0  0
  6 13  1  0  0  0
M  END
$$$$
