BAM
  CCTOOLS-0919241032

 18 18  0  0  0  0  0  0  0  0999 V2000
   -0.1820    0.0000    0.0010 C   0  0  0  0  0
    0.5190    1.1870   -0.2170 C   0  0  0  0  0
    1.8990    1.1810   -0.2110 C   0  0  0  0  0
    2.5870    0.0000    0.0010 C   0  0  0  0  0
    1.8990   -1.1810    0.2120 C   0  0  0  0  0
    0.5190   -1.1880    0.2130 C   0  0  0  0  0
   -1.6620    0.0000    0.0000 C   0  0  0  0  0
   -2.3280    1.0850    0.3920 N   0  0  0  0  0
   -2.3280   -1.0850   -0.3920 N   0  3  0  0  0
   -0.0180    2.1090   -0.3820 H   0  0  0  0  0
    2.4420    2.1000   -0.3750 H   0  0  0  0  0
    3.6670    0.0000    0.0010 H   0  0  0  0  0
    2.4420   -2.1000    0.3770 H   0  0  0  0  0
   -0.0180   -2.1100    0.3790 H   0  0  0  0  0
   -1.8430    1.8750    0.6780 H   0  0  0  0  0
   -3.2980    1.0860    0.3880 H   0  0  0  0  0
   -3.2980   -1.0850   -0.3920 H   0  0  0  0  0
   -1.8420   -1.8750   -0.6770 H   0  0  0  0  0
  1  2  2  0  0  0
  1  6  1  0  0  0
  1  7  1  0  0  0
  2  3  1  0  0  0
  2 10  1  0  0  0
  3  4  2  0  0  0
  3 11  1  0  0  0
  4  5  1  0  0  0
  4 12  1  0  0  0
  5  6  2  0  0  0
  5 13  1  0  0  0
  6 14  1  0  0  0
  7  8  1  0  0  0
  7  9  2  0  0  0
  8 15  1  0  0  0
  8 16  1  0  0  0
  9 17  1  0  0  0
  9 18  1  0  0  0
M  CHG  1   9   1
M  END
$$$$
