BBU
  CCTOOLS-0919241032

 14 13  0  0  0  0  0  0  0  0999 V2000
   -0.1030    0.0000   -1.4950 BR  0  0  0  0  0
    0.8210    0.0000    0.2390 C   0  0  0  0  0
   -0.2110    0.0000    1.3680 C   0  0  0  0  0
    0.5080    0.0000    2.7180 C   0  0  0  0  0
   -0.5240    0.0000    3.8470 C   0  0  0  0  0
    1.4450    0.8900    0.3180 H   0  0  0  0  0
    1.4450   -0.8900    0.3180 H   0  0  0  0  0
   -0.8360   -0.8900    1.2890 H   0  0  0  0  0
   -0.8360    0.8900    1.2890 H   0  0  0  0  0
    1.1320    0.8900    2.7970 H   0  0  0  0  0
    1.1320   -0.8900    2.7970 H   0  0  0  0  0
   -0.0110    0.0000    4.8080 H   0  0  0  0  0
   -1.1490    0.8900    3.7680 H   0  0  0  0  0
   -1.1490   -0.8900    3.7680 H   0  0  0  0  0
  1  2  1  0  0  0
  2  3  1  0  0  0
  2  6  1  0  0  0
  2  7  1  0  0  0
  3  4  1  0  0  0
  3  8  1  0  0  0
  3  9  1  0  0  0
  4  5  1  0  0  0
  4 10  1  0  0  0
  4 11  1  0  0  0
  5 12  1  0  0  0
  5 13  1  0  0  0
  5 14  1  0  0  0
M  END
$$$$
