BBX
  CCTOOLS-0919241032

  8  7  0  0  0  0  0  0  0  0999 V2000
    0.0470    0.0000   -0.6340 BR  0  0  0  0  0
   -0.7040    0.0000    1.1810 C   0  0  0  0  0
    0.4330    0.0000    2.2040 C   0  0  0  0  0
   -1.3170   -0.8900    1.3210 H   0  0  0  0  0
   -1.3170    0.8900    1.3210 H   0  0  0  0  0
    0.0170    0.0000    3.2110 H   0  0  0  0  0
    1.0470   -0.8900    2.0650 H   0  0  0  0  0
    1.0470    0.8900    2.0650 H   0  0  0  0  0
  1  2  1  0  0  0
  2  3  1  0  0  0
  2  4  1  0  0  0
  2  5  1  0  0  0
  3  6  1  0  0  0
  3  7  1  0  0  0
  3  8  1  0  0  0
M  END
$$$$
