BBY
  CCTOOLS-0919241032

 27 29  0  0  0  0  0  0  0  0999 V2000
   -0.4490    1.6520   -0.0920 C   0  0  0  0  0
   -0.8900    0.3300   -0.0240 C   0  0  0  0  0
    0.0380   -0.7090    0.0420 C   0  0  0  0  0
    1.3900   -0.4280    0.0390 C   0  0  0  0  0
    1.8290    0.8870   -0.0290 C   0  0  0  0  0
    0.9060    1.9290   -0.0950 C   0  0  0  0  0
    1.5860    3.1110   -0.1530 O   0  0  0  0  0
    2.9300    2.7630   -0.5350 C   0  0  0  0  0
    3.0870    1.4180   -0.0460 O   0  0  0  0  0
   -2.3390    0.0310   -0.0200 C   0  0  0  0  0
   -3.3400    0.8940    0.3140 N   0  0  0  0  0
   -4.5570    0.2120    0.1820 N   0  0  0  0  0
   -4.3060   -1.0130   -0.2150 C   0  0  0  0  0
   -2.9200   -1.1580   -0.3570 C   0  0  0  0  0
    2.6460   -1.8390    0.1280 BR  0  0  0  0  0
   -3.1730    2.2870    0.7360 C   0  0  0  0  0
   -5.2620   -2.0060   -0.4590 N   0  0  0  0  0
   -1.1660    2.4590   -0.1470 H   0  0  0  0  0
   -0.3000   -1.7330    0.0950 H   0  0  0  0  0
    3.0390    2.7920   -1.6190 H   0  0  0  0  0
    3.6480    3.4300   -0.0590 H   0  0  0  0  0
   -2.4020   -2.0520   -0.6730 H   0  0  0  0  0
   -3.0910    2.9260   -0.1440 H   0  0  0  0  0
   -4.0360    2.5930    1.3270 H   0  0  0  0  0
   -2.2690    2.3790    1.3370 H   0  0  0  0  0
   -6.2050   -1.8130   -0.3370 H   0  0  0  0  0
   -4.9820   -2.8880   -0.7510 H   0  0  0  0  0
  1  2  2  0  0  0
  1  6  1  0  0  0
  1 18  1  0  0  0
  2  3  1  0  0  0
  2 10  1  0  0  0
  3  4  2  0  0  0
  3 19  1  0  0  0
  4  5  1  0  0  0
  4 15  1  0  0  0
  5  6  2  0  0  0
  5  9  1  0  0  0
  6  7  1  0  0  0
  7  8  1  0  0  0
  8  9  1  0  0  0
  8 20  1  0  0  0
  8 21  1  0  0  0
 10 11  1  0  0  0
 10 14  2  0  0  0
 11 12  1  0  0  0
 11 16  1  0  0  0
 12 13  2  0  0  0
 13 14  1  0  0  0
 13 17  1  0  0  0
 14 22  1  0  0  0
 16 23  1  0  0  0
 16 24  1  0  0  0
 16 25  1  0  0  0
 17 26  1  0  0  0
 17 27  1  0  0  0
M  END
$$$$
