BCL
  CCTOOLS-0919241033

140148  0  0  1  0  0  0  0  0999 V2000
   41.7070   47.6800   22.1210 MG  0  2  0  0  0
   38.5750   48.8970   22.4250 C   0  0  0  0  0
   42.5470   50.5590   20.5760 C   0  0  0  0  0
   44.9680   47.0230   22.8770 C   0  0  0  0  0
   40.8320   45.1740   24.4320 C   0  0  0  0  0
   40.6840   49.3740   21.4590 N   0  0  0  0  0
   39.3440   49.6830   21.6400 C   0  0  0  0  0
   38.9950   51.0960   21.1570 C   0  0  0  0  0
   40.2140   51.3970   20.2010 C   0  0  0  0  0
   41.1970   50.4000   20.7790 C   0  0  0  0  0
   39.8910   50.8690   18.7990 C   0  0  0  0  0
   38.8210   52.0380   22.3310 C   0  0  0  0  0
   40.0750   52.2910   23.1240 C   0  0  0  0  0
   39.8080   53.3480   24.1860 C   0  0  0  0  0
   38.9210   54.0610   24.2260 O   0  0  0  0  0
   40.6890   53.5030   25.0480 O   0  0  0  0  0
   43.4340   48.5390   21.7440 N   0  5  0  0  0
   43.5630   49.7330   21.0890 C   0  0  0  0  0
   44.9030   50.0420   21.0150 C   0  0  0  0  0
   45.6020   49.0640   21.6090 C   0  0  0  0  0
   44.6810   48.1260   22.1370 C   0  0  0  0  0
   45.4150   51.1900   20.1920 C   0  0  0  0  0
   47.1000   49.1370   21.8950 C   0  0  0  0  0
   47.6410   48.3550   22.5850 O   0  0  0  0  0
   48.0310   50.0210   21.1110 C   0  0  0  0  0
   42.6460   46.2680   23.2930 N   0  0  0  0  0
   43.9920   46.2050   23.4650 C   0  0  0  0  0
   44.4100   45.0440   24.3360 C   0  0  0  0  0
   43.1660   44.2540   24.5460 C   0  0  0  0  0
   42.1490   45.3340   24.1580 C   0  0  0  0  0
   45.2870   44.1030   23.5410 C   0  0  0  0  0
   43.1780   44.0100   26.0590 C   0  0  0  0  0
   42.9170   45.2630   26.9090 C   0  0  0  0  0
   40.1660   47.1080   23.1640 N   0  5  0  0  0
   39.8760   46.1220   24.0890 C   0  0  0  0  0
   38.5090   46.0100   24.3940 C   0  0  0  0  0
   37.9780   47.0110   23.6900 C   0  0  0  0  0
   38.9920   47.6840   23.0130 C   0  0  0  0  0
   37.8020   44.8890   25.0990 C   0  0  0  0  0
   36.7310   47.8380   23.6280 C   0  0  0  0  0
   35.4960   47.5260   23.9000 O   0  0  0  0  0
   37.0990   49.1290   22.7960 C   0  0  0  0  0
   36.2230   49.0300   21.5220 C   0  0  0  0  0
   35.9720   48.0850   21.0010 O   0  0  0  0  0
   35.8810   50.0680   20.9060 O   0  0  0  0  0
   35.6470   49.7780   19.4240 C   0  0  0  0  0
   40.4580   54.3910   26.1980 C   0  0  0  0  0
   40.5500   53.6510   27.5250 C   0  0  0  0  0
   41.6380   53.6140   28.2700 C   0  0  0  0  0
   42.9170   54.2590   27.8300 C   0  0  0  0  0
   41.7200   52.8590   29.6180 C   0  0  0  0  0
   41.0160   51.4870   29.4920 C   0  0  0  0  0
   40.7420   51.0340   30.9290 C   0  0  0  0  0
   40.6420   49.5410   31.0840 C   0  0  0  0  0
   41.1390   48.7680   29.8630 C   0  0  0  0  0
   39.1770   49.2910   31.2630 C   0  0  0  0  0
   38.9780   49.0070   32.7030 C   0  0  0  0  0
   37.4770   49.1270   32.8810 C   0  0  0  0  0
   37.2030   49.2770   34.3810 C   0  0  0  0  0
   37.5820   47.9520   35.0480 C   0  0  0  0  0
   35.7460   49.5880   34.6360 C   0  0  0  0  0
   35.5130   50.9230   33.9950 C   0  0  0  0  0
   34.1730   51.4310   34.4750 C   0  0  0  0  0
   34.0700   52.9540   34.4200 C   0  0  0  0  0
   33.0350   53.3200   35.4510 C   0  0  0  0  0
   33.5150   53.4240   33.0600 C   0  0  0  0  0
   42.8560   51.3950   19.9660 H   0  0  0  0  0
   46.0060   46.7620   23.0210 H   0  0  0  0  0
   40.5130   44.2740   24.9370 H   0  0  0  0  0
   38.0710   51.0650   20.5620 H   0  0  0  0  0
   40.5500   52.4440   20.2280 H   0  0  0  0  0
   40.7360   51.0750   18.1250 H   0  0  0  0  0
   39.7160   49.7840   18.8470 H   0  0  0  0  0
   38.9880   51.3690   18.4180 H   0  0  0  0  0
   38.4580   53.0020   21.9460 H   0  0  0  0  0
   38.0680   51.6070   23.0080 H   0  0  0  0  0
   40.3950   51.3570   23.6100 H   0  0  0  0  0
   40.8690   52.6440   22.4490 H   0  0  0  0  0
   46.5100   51.2470   20.2820 H   0  0  0  0  0
   45.1420   51.0360   19.1380 H   0  0  0  0  0
   44.9680   52.1280   20.5530 H   0  0  0  0  0
   49.0730   49.7550   21.3440 H   0  0  0  0  0
   47.8490   49.8820   20.0350 H   0  0  0  0  0
   47.8520   51.0720   21.3810 H   0  0  0  0  0
   44.8790   45.3670   25.2770 H   0  0  0  0  0
   43.0960   43.3360   23.9440 H   0  0  0  0  0
   45.5900   43.2580   24.1770 H   0  0  0  0  0
   44.7270   43.7250   22.6730 H   0  0  0  0  0
   46.1820   44.6410   23.1940 H   0  0  0  0  0
   42.4010   43.2680   26.2930 H   0  0  0  0  0
   44.1640   43.6070   26.3340 H   0  0  0  0  0
   42.9440   44.9950   27.9760 H   0  0  0  0  0
   43.6920   46.0150   26.7000 H   0  0  0  0  0
   41.9280   45.6760   26.6600 H   0  0  0  0  0
   36.7290   45.1210   25.1740 H   0  0  0  0  0
   37.9370   43.9560   24.5320 H   0  0  0  0  0
   38.2220   44.7680   26.1080 H   0  0  0  0  0
   36.9340   50.0580   23.3610 H   0  0  0  0  0
   35.3490   50.7040   18.9110 H   0  0  0  0  0
   36.5740   49.3920   18.9750 H   0  0  0  0  0
   34.8490   49.0280   19.3190 H   0  0  0  0  0
   41.2140   55.1900   26.1850 H   0  0  0  0  0
   39.4550   54.8330   26.1080 H   0  0  0  0  0
   39.6740   53.1260   27.8770 H   0  0  0  0  0
   43.6890   54.1070   28.5990 H   0  0  0  0  0
   43.2490   53.8070   26.8830 H   0  0  0  0  0
   42.7530   55.3370   27.6840 H   0  0  0  0  0
   42.7750   52.7050   29.8870 H   0  0  0  0  0
   41.2250   53.4530   30.4000 H   0  0  0  0  0
   40.0730   51.5890   28.9350 H   0  0  0  0  0
   41.6690   50.7650   28.9790 H   0  0  0  0  0
   41.5600   51.3960   31.5690 H   0  0  0  0  0
   39.7930   51.4820   31.2590 H   0  0  0  0  0
   41.1940   49.2170   31.9790 H   0  0  0  0  0
   41.0370   47.6880   30.0460 H   0  0  0  0  0
   40.5420   49.0490   28.9830 H   0  0  0  0  0
   42.1960   49.0110   29.6810 H   0  0  0  0  0
   38.6000   50.1790   30.9660 H   0  0  0  0  0
   38.8610   48.4290   30.6570 H   0  0  0  0  0
   39.3250   47.9940   32.9560 H   0  0  0  0  0
   39.5080   49.7420   33.3260 H   0  0  0  0  0
   37.1040   50.0090   32.3410 H   0  0  0  0  0
   36.9800   48.2240   32.4970 H   0  0  0  0  0
   37.8300   50.0840   34.7880 H   0  0  0  0  0
   37.3990   48.0200   36.1310 H   0  0  0  0  0
   36.9730   47.1400   34.6240 H   0  0  0  0  0
   38.6470   47.7430   34.8690 H   0  0  0  0  0
   35.1020   48.8220   34.1790 H   0  0  0  0  0
   35.5450   49.6380   35.7160 H   0  0  0  0  0
   36.3080   51.6240   34.2890 H   0  0  0  0  0
   35.5040   50.8170   32.9000 H   0  0  0  0  0
   33.3850   51.0010   33.8400 H   0  0  0  0  0
   34.0240   51.1050   35.5150 H   0  0  0  0  0
   35.0400   53.4270   34.6350 H   0  0  0  0  0
   32.9050   54.4120   35.4690 H   0  0  0  0  0
   32.0780   52.8410   35.1960 H   0  0  0  0  0
   33.3660   52.9730   36.4410 H   0  0  0  0  0
   33.4520   54.5220   33.0490 H   0  0  0  0  0
   34.1840   53.0870   32.2550 H   0  0  0  0  0
   32.5130   52.9980   32.9060 H   0  0  0  0  0
  1  6  1  0  0  0
  1 17  1  0  0  0
  1 26  1  0  0  0
  1 34  1  0  0  0
  2  7  1  0  0  0
  2 38  2  0  0  0
  2 42  1  0  0  0
  3 10  2  0  0  0
  3 18  1  0  0  0
  3 67  1  0  0  0
  4 21  1  0  0  0
  4 27  2  0  0  0
  4 68  1  0  0  0
  5 30  1  0  0  0
  5 35  2  0  0  0
  5 69  1  0  0  0
  6  7  2  0  0  0
  6 10  1  0  0  0
  7  8  1  0  0  0
  8  9  1  0  0  0
  8 12  1  0  0  0
  8 70  1  0  0  0
  9 10  1  0  0  0
  9 11  1  0  0  0
  9 71  1  0  0  0
 11 72  1  0  0  0
 11 73  1  0  0  0
 11 74  1  0  0  0
 12 13  1  0  0  0
 12 75  1  0  0  0
 12 76  1  0  0  0
 13 14  1  0  0  0
 13 77  1  0  0  0
 13 78  1  0  0  0
 14 15  2  0  0  0
 14 16  1  0  0  0
 16 47  1  0  0  0
 17 18  1  0  0  0
 17 21  1  0  0  0
 18 19  2  0  0  0
 19 20  1  0  0  0
 19 22  1  0  0  0
 20 21  2  0  0  0
 20 23  1  0  0  0
 22 79  1  0  0  0
 22 80  1  0  0  0
 22 81  1  0  0  0
 23 24  2  0  0  0
 23 25  1  0  0  0
 25 82  1  0  0  0
 25 83  1  0  0  0
 25 84  1  0  0  0
 26 27  1  0  0  0
 26 30  2  0  0  0
 27 28  1  0  0  0
 28 29  1  0  0  0
 28 31  1  0  0  0
 28 85  1  0  0  0
 29 30  1  0  0  0
 29 32  1  0  0  0
 29 86  1  0  0  0
 31 87  1  0  0  0
 31 88  1  0  0  0
 31 89  1  0  0  0
 32 33  1  0  0  0
 32 90  1  0  0  0
 32 91  1  0  0  0
 33 92  1  0  0  0
 33 93  1  0  0  0
 33 94  1  0  0  0
 34 35  1  0  0  0
 34 38  1  0  0  0
 35 36  1  0  0  0
 36 37  2  0  0  0
 36 39  1  0  0  0
 37 38  1  0  0  0
 37 40  1  0  0  0
 39 95  1  0  0  0
 39 96  1  0  0  0
 39 97  1  0  0  0
 40 41  2  0  0  0
 40 42  1  0  0  0
 42 43  1  0  0  0
 42 98  1  0  0  0
 43 44  2  0  0  0
 43 45  1  0  0  0
 45 46  1  0  0  0
 46 99  1  0  0  0
 46100  1  0  0  0
 46101  1  0  0  0
 47 48  1  0  0  0
 47102  1  0  0  0
 47103  1  0  0  0
 48 49  2  0  0  0
 48104  1  0  0  0
 49 50  1  0  0  0
 49 51  1  0  0  0
 50105  1  0  0  0
 50106  1  0  0  0
 50107  1  0  0  0
 51 52  1  0  0  0
 51108  1  0  0  0
 51109  1  0  0  0
 52 53  1  0  0  0
 52110  1  0  0  0
 52111  1  0  0  0
 53 54  1  0  0  0
 53112  1  0  0  0
 53113  1  0  0  0
 54 55  1  0  0  0
 54 56  1  0  0  0
 54114  1  0  0  0
 55115  1  0  0  0
 55116  1  0  0  0
 55117  1  0  0  0
 56 57  1  0  0  0
 56118  1  0  0  0
 56119  1  0  0  0
 57 58  1  0  0  0
 57120  1  0  0  0
 57121  1  0  0  0
 58 59  1  0  0  0
 58122  1  0  0  0
 58123  1  0  0  0
 59 60  1  0  0  0
 59 61  1  0  0  0
 59124  1  0  0  0
 60125  1  0  0  0
 60126  1  0  0  0
 60127  1  0  0  0
 61 62  1  0  0  0
 61128  1  0  0  0
 61129  1  0  0  0
 62 63  1  0  0  0
 62130  1  0  0  0
 62131  1  0  0  0
 63 64  1  0  0  0
 63132  1  0  0  0
 63133  1  0  0  0
 64 65  1  0  0  0
 64 66  1  0  0  0
 64134  1  0  0  0
 65135  1  0  0  0
 65136  1  0  0  0
 65137  1  0  0  0
 66138  1  0  0  0
 66139  1  0  0  0
 66140  1  0  0  0
M  CHG  1   1   2
M  CHG  1  17  -1
M  CHG  1  34  -1
M  END
$$$$
