BCP
  CCTOOLS-0919241033

 13 14  0  0  0  0  0  0  0  0999 V2000
   -2.4590    0.0000   -2.0600 CL  0  0  0  0  0
   -0.9770    0.0000   -1.1570 C   0  0  0  0  0
   -0.9920    0.0000    0.1670 N   0  0  0  0  0
    0.1290    0.0000    0.8650 C   0  0  0  0  0
    0.0270   -0.0000    2.7540 BR  0  0  0  0  0
    0.2480   -0.0040   -1.8080 C   0  0  0  0  0
    1.4250    0.0000   -1.0340 C   0  0  0  0  0
    1.3150    0.0000    0.2950 N   0  0  0  0  0
    0.6590    0.0000   -3.1250 N   0  0  0  0  0
    2.0110    0.0000   -3.1210 C   0  0  0  0  0
    2.4580    0.0000   -1.8960 N   0  0  0  0  0
    0.0850    0.0010   -3.9070 H   0  0  0  0  0
    2.6320    0.0010   -4.0050 H   0  0  0  0  0
  1  2  1  0  0  0
  2  3  2  0  0  0
  2  6  1  0  0  0
  3  4  1  0  0  0
  4  5  1  0  0  0
  4  8  2  0  0  0
  6  7  2  0  0  0
  6  9  1  0  0  0
  7  8  1  0  0  0
  7 11  1  0  0  0
  9 10  1  0  0  0
  9 12  1  0  0  0
 10 11  2  0  0  0
 10 13  1  0  0  0
M  END
$$$$
