BCR
  CCTOOLS-0919241033

 96 97  0  0  0  0  0  0  0  0999 V2000
    0.0000    0.0000    0.0000 C   0  0  0  0  0
    0.0000    0.0000    0.0000 C   0  0  0  0  0
    0.0000    0.0000    0.0000 C   0  0  0  0  0
    0.0000    0.0000    0.0000 C   0  0  0  0  0
    0.0000    0.0000    0.0000 C   0  0  0  0  0
    0.0000    0.0000    0.0000 C   0  0  0  0  0
    0.0000    0.0000    0.0000 C   0  0  0  0  0
    0.0000    0.0000    0.0000 C   0  0  0  0  0
    0.0000    0.0000    0.0000 C   0  0  0  0  0
    0.0000    0.0000    0.0000 C   0  0  0  0  0
    0.0000    0.0000    0.0000 C   0  0  0  0  0
    0.0000    0.0000    0.0000 C   0  0  0  0  0
    0.0000    0.0000    0.0000 C   0  0  0  0  0
    0.0000    0.0000    0.0000 C   0  0  0  0  0
    0.0000    0.0000    0.0000 C   0  0  0  0  0
    0.0000    0.0000    0.0000 C   0  0  0  0  0
    0.0000    0.0000    0.0000 C   0  0  0  0  0
    0.0000    0.0000    0.0000 C   0  0  0  0  0
    0.0000    0.0000    0.0000 C   0  0  0  0  0
    0.0000    0.0000    0.0000 C   0  0  0  0  0
    0.0000    0.0000    0.0000 C   0  0  0  0  0
    0.0000    0.0000    0.0000 C   0  0  0  0  0
    0.0000    0.0000    0.0000 C   0  0  0  0  0
    0.0000    0.0000    0.0000 C   0  0  0  0  0
    0.0000    0.0000    0.0000 C   0  0  0  0  0
    0.0000    0.0000    0.0000 C   0  0  0  0  0
    0.0000    0.0000    0.0000 C   0  0  0  0  0
    0.0000    0.0000    0.0000 C   0  0  0  0  0
    0.0000    0.0000    0.0000 C   0  0  0  0  0
    0.0000    0.0000    0.0000 C   0  0  0  0  0
    0.0000    0.0000    0.0000 C   0  0  0  0  0
    0.0000    0.0000    0.0000 C   0  0  0  0  0
    0.0000    0.0000    0.0000 C   0  0  0  0  0
    0.0000    0.0000    0.0000 C   0  0  0  0  0
    0.0000    0.0000    0.0000 C   0  0  0  0  0
    0.0000    0.0000    0.0000 C   0  0  0  0  0
    0.0000    0.0000    0.0000 C   0  0  0  0  0
    0.0000    0.0000    0.0000 C   0  0  0  0  0
    0.0000    0.0000    0.0000 C   0  0  0  0  0
    0.0000    0.0000    0.0000 C   0  0  0  0  0
    0.0000    0.0000    0.0000 H   0  0  0  0  0
    0.0000    0.0000    0.0000 H   0  0  0  0  0
    0.0000    0.0000    0.0000 H   0  0  0  0  0
    0.0000    0.0000    0.0000 H   0  0  0  0  0
    0.0000    0.0000    0.0000 H   0  0  0  0  0
    0.0000    0.0000    0.0000 H   0  0  0  0  0
    0.0000    0.0000    0.0000 H   0  0  0  0  0
    0.0000    0.0000    0.0000 H   0  0  0  0  0
    0.0000    0.0000    0.0000 H   0  0  0  0  0
    0.0000    0.0000    0.0000 H   0  0  0  0  0
    0.0000    0.0000    0.0000 H   0  0  0  0  0
    0.0000    0.0000    0.0000 H   0  0  0  0  0
    0.0000    0.0000    0.0000 H   0  0  0  0  0
    0.0000    0.0000    0.0000 H   0  0  0  0  0
    0.0000    0.0000    0.0000 H   0  0  0  0  0
    0.0000    0.0000    0.0000 H   0  0  0  0  0
    0.0000    0.0000    0.0000 H   0  0  0  0  0
    0.0000    0.0000    0.0000 H   0  0  0  0  0
    0.0000    0.0000    0.0000 H   0  0  0  0  0
    0.0000    0.0000    0.0000 H   0  0  0  0  0
    0.0000    0.0000    0.0000 H   0  0  0  0  0
    0.0000    0.0000    0.0000 H   0  0  0  0  0
    0.0000    0.0000    0.0000 H   0  0  0  0  0
    0.0000    0.0000    0.0000 H   0  0  0  0  0
    0.0000    0.0000    0.0000 H   0  0  0  0  0
    0.0000    0.0000    0.0000 H   0  0  0  0  0
    0.0000    0.0000    0.0000 H   0  0  0  0  0
    0.0000    0.0000    0.0000 H   0  0  0  0  0
    0.0000    0.0000    0.0000 H   0  0  0  0  0
    0.0000    0.0000    0.0000 H   0  0  0  0  0
    0.0000    0.0000    0.0000 H   0  0  0  0  0
    0.0000    0.0000    0.0000 H   0  0  0  0  0
    0.0000    0.0000    0.0000 H   0  0  0  0  0
    0.0000    0.0000    0.0000 H   0  0  0  0  0
    0.0000    0.0000    0.0000 H   0  0  0  0  0
    0.0000    0.0000    0.0000 H   0  0  0  0  0
    0.0000    0.0000    0.0000 H   0  0  0  0  0
    0.0000    0.0000    0.0000 H   0  0  0  0  0
    0.0000    0.0000    0.0000 H   0  0  0  0  0
    0.0000    0.0000    0.0000 H   0  0  0  0  0
    0.0000    0.0000    0.0000 H   0  0  0  0  0
    0.0000    0.0000    0.0000 H   0  0  0  0  0
    0.0000    0.0000    0.0000 H   0  0  0  0  0
    0.0000    0.0000    0.0000 H   0  0  0  0  0
    0.0000    0.0000    0.0000 H   0  0  0  0  0
    0.0000    0.0000    0.0000 H   0  0  0  0  0
    0.0000    0.0000    0.0000 H   0  0  0  0  0
    0.0000    0.0000    0.0000 H   0  0  0  0  0
    0.0000    0.0000    0.0000 H   0  0  0  0  0
    0.0000    0.0000    0.0000 H   0  0  0  0  0
    0.0000    0.0000    0.0000 H   0  0  0  0  0
    0.0000    0.0000    0.0000 H   0  0  0  0  0
    0.0000    0.0000    0.0000 H   0  0  0  0  0
    0.0000    0.0000    0.0000 H   0  0  0  0  0
    0.0000    0.0000    0.0000 H   0  0  0  0  0
    0.0000    0.0000    0.0000 H   0  0  0  0  0
  1  2  1  0  0  0
  1  6  1  0  0  0
  1 13  1  0  0  0
  1 14  1  0  0  0
  2  3  1  0  0  0
  2 41  1  0  0  0
  2 42  1  0  0  0
  3  4  1  0  0  0
  3 43  1  0  0  0
  3 44  1  0  0  0
  4  5  1  0  0  0
  4 45  1  0  0  0
  4 46  1  0  0  0
  5  6  2  0  0  0
  5 12  1  0  0  0
  6  7  1  0  0  0
  7  8  2  0  0  0
  7 47  1  0  0  0
  8  9  1  0  0  0
  8 48  1  0  0  0
  9 10  2  0  0  0
  9 15  1  0  0  0
 10 11  1  0  0  0
 10 49  1  0  0  0
 11 16  2  0  0  0
 11 50  1  0  0  0
 12 51  1  0  0  0
 12 52  1  0  0  0
 12 53  1  0  0  0
 13 54  1  0  0  0
 13 55  1  0  0  0
 13 56  1  0  0  0
 14 57  1  0  0  0
 14 58  1  0  0  0
 14 59  1  0  0  0
 15 60  1  0  0  0
 15 61  1  0  0  0
 15 62  1  0  0  0
 16 17  1  0  0  0
 16 63  1  0  0  0
 17 18  2  0  0  0
 17 35  1  0  0  0
 18 19  1  0  0  0
 18 64  1  0  0  0
 19 20  2  0  0  0
 19 65  1  0  0  0
 20 21  1  0  0  0
 20 66  1  0  0  0
 21 22  2  0  0  0
 21 67  1  0  0  0
 22 23  1  0  0  0
 22 36  1  0  0  0
 23 24  2  0  0  0
 23 68  1  0  0  0
 24 25  1  0  0  0
 24 69  1  0  0  0
 25 26  2  0  0  0
 25 70  1  0  0  0
 26 27  1  0  0  0
 26 37  1  0  0  0
 27 28  2  0  0  0
 27 71  1  0  0  0
 28 29  1  0  0  0
 28 72  1  0  0  0
 29 30  2  0  0  0
 29 34  1  0  0  0
 30 31  1  0  0  0
 30 38  1  0  0  0
 31 32  1  0  0  0
 31 73  1  0  0  0
 31 74  1  0  0  0
 32 33  1  0  0  0
 32 75  1  0  0  0
 32 76  1  0  0  0
 33 34  1  0  0  0
 33 77  1  0  0  0
 33 78  1  0  0  0
 34 39  1  0  0  0
 34 40  1  0  0  0
 35 79  1  0  0  0
 35 80  1  0  0  0
 35 81  1  0  0  0
 36 82  1  0  0  0
 36 83  1  0  0  0
 36 84  1  0  0  0
 37 85  1  0  0  0
 37 86  1  0  0  0
 37 87  1  0  0  0
 38 88  1  0  0  0
 38 89  1  0  0  0
 38 90  1  0  0  0
 39 91  1  0  0  0
 39 92  1  0  0  0
 39 93  1  0  0  0
 40 94  1  0  0  0
 40 95  1  0  0  0
 40 96  1  0  0  0
M  END
$$$$
