BE2
  CCTOOLS-1004241128

 17 17  0  0  0  0  0  0  0  0999 V2000
   -0.2240   -0.0080   -1.6310 C   0  0  0  0  0
    0.8340   -0.0930   -2.2210 O   0  0  0  0  0
   -1.3760    0.0820   -2.3240 O   0  0  0  0  0
   -0.2480   -0.0040   -0.1580 C   0  0  0  0  0
    0.9520    0.0150    0.5670 C   0  0  0  0  0
    0.9150    0.0190    1.9560 C   0  0  0  0  0
    2.1700    0.0360   -0.0980 N   0  0  0  0  0
   -0.2950   -0.0010    2.6160 C   0  0  0  0  0
   -1.4830   -0.0260    1.9020 C   0  0  0  0  0
   -1.4680   -0.0310    0.5250 C   0  0  0  0  0
   -1.3610    0.0790   -3.2910 H   0  0  0  0  0
    1.8360    0.0390    2.5200 H   0  0  0  0  0
    2.9950    0.1390    0.4020 H   0  0  0  0  0
    2.1970   -0.0550   -1.0630 H   0  0  0  0  0
   -0.3180    0.0010    3.6960 H   0  0  0  0  0
   -2.4260   -0.0430    2.4280 H   0  0  0  0  0
   -2.3960   -0.0510   -0.0260 H   0  0  0  0  0
  1  2  2  0  0  0
  1  3  1  0  0  0
  1  4  1  0  0  0
  3 11  1  0  0  0
  4  5  2  0  0  0
  4 10  1  0  0  0
  5  6  1  0  0  0
  5  7  1  0  0  0
  6  8  2  0  0  0
  6 12  1  0  0  0
  7 13  1  0  0  0
  7 14  1  0  0  0
  8  9  1  0  0  0
  8 15  1  0  0  0
  9 10  2  0  0  0
  9 16  1  0  0  0
 10 17  1  0  0  0
M  END
$$$$
