BER
  CCTOOLS-0919241033

 43 47  0  0  0  0  0  0  0  0999 V2000
   -0.5400   -0.1940    0.0130 C   0  0  0  0  0
   -2.0250   -0.1390    0.0140 C   0  0  0  0  0
    0.0780   -1.3790   -0.0330 N   0  3  0  0  0
    0.1710    0.9930    0.0380 C   0  0  0  0  0
   -2.7390   -1.2940    0.3270 C   0  0  0  0  0
   -2.6760    1.0670   -0.2640 C   0  0  0  0  0
    1.3910   -1.4760    0.0080 C   0  0  0  0  0
   -0.6970   -2.6200   -0.1410 C   0  0  0  0  0
    1.5730    0.9450    0.0660 C   0  0  0  0  0
   -4.1240   -1.3100    0.3300 C   0  0  0  0  0
   -1.9750   -2.5440    0.6860 C   0  0  0  0  0
   -4.0620    1.0540   -0.2570 C   0  0  0  0  0
    2.1970   -0.3320    0.0670 C   0  0  0  0  0
    2.3600    2.1050    0.0980 C   0  0  0  0  0
   -4.7770   -0.1210    0.0300 C   0  0  0  0  0
   -4.9420    2.0530   -0.4940 O   0  0  0  0  0
    3.6010   -0.4110    0.1170 C   0  0  0  0  0
    3.7180    2.0010    0.1440 C   0  0  0  0  0
   -6.1010    0.1480   -0.0400 O   0  0  0  0  0
   -6.2060    1.5860    0.0230 C   0  0  0  0  0
    4.3430    0.7530    0.1590 C   0  0  0  0  0
    4.2200   -1.6210    0.1290 O   0  0  0  0  0
    5.7010    0.6830    0.2100 O   0  0  0  0  0
    4.4580   -1.9760   -1.2340 C   0  0  0  0  0
    6.1830    2.0280    0.2370 C   0  0  0  0  0
   -0.3450    1.9410    0.0350 H   0  0  0  0  0
   -2.1230    1.9700   -0.4740 H   0  0  0  0  0
    1.8530   -2.4520   -0.0030 H   0  0  0  0  0
   -0.0900   -3.4530    0.2140 H   0  0  0  0  0
   -0.9570   -2.7900   -1.1860 H   0  0  0  0  0
   -4.6750   -2.2120    0.5570 H   0  0  0  0  0
   -1.7210   -2.5220    1.7460 H   0  0  0  0  0
   -2.5930   -3.4180    0.4800 H   0  0  0  0  0
    1.8910    3.0780    0.0860 H   0  0  0  0  0
    4.3190    2.8980    0.1690 H   0  0  0  0  0
   -6.3410    1.9140    1.0540 H   0  0  0  0  0
   -7.0270    1.9370   -0.6010 H   0  0  0  0  0
    4.9560   -2.9450   -1.2760 H   0  0  0  0  0
    3.5080   -2.0330   -1.7660 H   0  0  0  0  0
    5.0910   -1.2220   -1.7010 H   0  0  0  0  0
    7.2730    2.0220    0.2790 H   0  0  0  0  0
    5.8570    2.5490   -0.6620 H   0  0  0  0  0
    5.7890    2.5370    1.1170 H   0  0  0  0  0
  1  2  1  0  0  0
  1  3  2  0  0  0
  1  4  1  0  0  0
  2  5  2  0  0  0
  2  6  1  0  0  0
  3  7  1  0  0  0
  3  8  1  0  0  0
  4  9  2  0  0  0
  4 26  1  0  0  0
  5 10  1  0  0  0
  5 11  1  0  0  0
  6 12  2  0  0  0
  6 27  1  0  0  0
  7 13  2  0  0  0
  7 28  1  0  0  0
  8 11  1  0  0  0
  8 29  1  0  0  0
  8 30  1  0  0  0
  9 13  1  0  0  0
  9 14  1  0  0  0
 10 15  2  0  0  0
 10 31  1  0  0  0
 11 32  1  0  0  0
 11 33  1  0  0  0
 12 15  1  0  0  0
 12 16  1  0  0  0
 13 17  1  0  0  0
 14 18  2  0  0  0
 14 34  1  0  0  0
 15 19  1  0  0  0
 16 20  1  0  0  0
 17 21  2  0  0  0
 17 22  1  0  0  0
 18 21  1  0  0  0
 18 35  1  0  0  0
 19 20  1  0  0  0
 20 36  1  0  0  0
 20 37  1  0  0  0
 21 23  1  0  0  0
 22 24  1  0  0  0
 23 25  1  0  0  0
 24 38  1  0  0  0
 24 39  1  0  0  0
 24 40  1  0  0  0
 25 41  1  0  0  0
 25 42  1  0  0  0
 25 43  1  0  0  0
M  CHG  1   3   1
M  END
$$$$
