BG6
  CCTOOLS-0919241033

 29 29  0  0  1  0  0  0  0  0999 V2000
    1.4270    0.2890   -2.1050 C   0  0  0  0  0
    0.4650   -0.2440   -3.1690 C   0  0  0  0  0
    2.7630   -0.0960   -2.4370 O   0  0  0  0  0
    1.0820   -0.2480   -0.8300 O   0  0  0  0  0
   -0.9590    0.2040   -2.8230 C   0  0  0  0  0
    0.8320    0.2740   -4.4490 O   0  0  0  0  0
   -1.2720   -0.2270   -1.3860 C   0  0  0  0  0
   -1.8880   -0.4060   -3.7200 O   0  0  0  0  0
   -0.1780    0.3030   -0.4560 C   0  0  0  0  0
   -2.5370    0.3060   -0.9900 O   0  0  0  0  0
   -0.5010   -0.0940    0.9840 C   0  0  0  0  0
    0.5150    0.4060    1.8550 O   0  0  0  0  0
    0.1140   -0.0470    3.3470 P   0  0  0  0  0
    1.2220    0.4860    4.3860 O   0  0  0  0  0
   -1.3210    0.5730    3.7290 O   0  0  0  0  0
    0.0460   -1.5240    3.4130 O   0  0  0  0  0
    1.3620    1.3760   -2.0700 H   0  0  0  0  0
    0.5090   -1.3330   -3.1900 H   0  0  0  0  0
    3.3370    0.2600   -1.7450 H   0  0  0  0  0
   -1.0320    1.2880   -2.9040 H   0  0  0  0  0
    1.7320   -0.0300   -4.6260 H   0  0  0  0  0
   -1.3020   -1.3150   -1.3300 H   0  0  0  0  0
   -1.6550   -0.1080   -4.6100 H   0  0  0  0  0
   -0.1350    1.3900   -0.5310 H   0  0  0  0  0
   -3.1960   -0.0520   -1.6000 H   0  0  0  0  0
   -1.4650    0.3260    1.2710 H   0  0  0  0  0
   -0.5420   -1.1810    1.0610 H   0  0  0  0  0
    0.9440    0.1930    5.2650 H   0  0  0  0  0
   -1.2340    1.5340    3.6740 H   0  0  0  0  0
  1  2  1  0  0  0
  1  3  1  0  0  0
  1  4  1  0  0  0
  1 17  1  0  0  0
  2  5  1  0  0  0
  2  6  1  0  0  0
  2 18  1  0  0  0
  3 19  1  0  0  0
  4  9  1  0  0  0
  5  7  1  0  0  0
  5  8  1  0  0  0
  5 20  1  0  0  0
  6 21  1  0  0  0
  7  9  1  0  0  0
  7 10  1  0  0  0
  7 22  1  0  0  0
  8 23  1  0  0  0
  9 11  1  0  0  0
  9 24  1  0  0  0
 10 25  1  0  0  0
 11 12  1  0  0  0
 11 26  1  0  0  0
 11 27  1  0  0  0
 12 13  1  0  0  0
 13 14  1  0  0  0
 13 15  1  0  0  0
 13 16  2  0  0  0
 14 28  1  0  0  0
 15 29  1  0  0  0
M  END
$$$$
