BG8
  CCTOOLS-0919241033

 37 38  0  0  1  0  0  0  0  0999 V2000
   -1.4140   -1.3760    0.0230 C   0  0  0  0  0
   -0.5840   -0.1270    0.3340 C   0  0  0  0  0
   -1.1610    1.0650   -0.4350 C   0  0  0  0  0
   -2.5330    1.2420   -0.0770 O   0  0  0  0  0
   -3.3670    0.1240   -0.3880 C   0  0  0  0  0
   -2.8780   -1.1050    0.3830 C   0  0  0  0  0
    0.8050   -0.3480   -0.0760 N   0  0  0  0  0
   -3.6750   -2.2370    0.0290 O   0  0  0  0  0
   -0.9270   -2.4770    0.7910 O   0  0  0  0  0
   -4.8100    0.4380    0.0120 C   0  0  0  0  0
   -0.4260    2.2450   -0.1070 O   0  0  0  0  0
   -5.3040    1.5120   -0.7900 O   0  0  0  0  0
    1.8000    0.3420    0.5160 C   0  0  0  0  0
    1.5450    1.1480    1.3890 O   0  0  0  0  0
    4.2350    0.8320    0.7130 C   0  0  0  0  0
    3.2020    0.1190    0.1020 C   0  0  0  0  0
    3.4980   -0.8060   -0.9000 C   0  0  0  0  0
    4.8080   -1.0090   -1.2810 C   0  0  0  0  0
    5.8280   -0.3000   -0.6710 C   0  0  0  0  0
    5.5410    0.6180    0.3230 C   0  0  0  0  0
   -1.3380   -1.6090   -1.0390 H   0  0  0  0  0
   -0.6200    0.0780    1.4040 H   0  0  0  0  0
   -1.0870    0.8770   -1.5070 H   0  0  0  0  0
   -3.3210   -0.0760   -1.4590 H   0  0  0  0  0
   -2.9630   -0.9200    1.4540 H   0  0  0  0  0
    1.0080   -0.9910   -0.7730 H   0  0  0  0  0
   -4.6160   -2.1330    0.2260 H   0  0  0  0  0
   -1.4100   -3.3030    0.6460 H   0  0  0  0  0
   -5.4300   -0.4460   -0.1430 H   0  0  0  0  0
   -4.8420    0.7240    1.0630 H   0  0  0  0  0
   -0.7370    3.0410   -0.5590 H   0  0  0  0  0
   -6.2160    1.7650   -0.5910 H   0  0  0  0  0
    4.0120    1.5520    1.4870 H   0  0  0  0  0
    2.7040   -1.3610   -1.3770 H   0  0  0  0  0
    5.0390   -1.7250   -2.0570 H   0  0  0  0  0
    6.8520   -0.4630   -0.9730 H   0  0  0  0  0
    6.3400    1.1730    0.7920 H   0  0  0  0  0
  1 21  1  0  0  0
  2  1  1  0  0  0
  2  7  1  0  0  0
  2 22  1  0  0  0
  3  2  1  0  0  0
  3 23  1  0  0  0
  4  5  1  0  0  0
  4  3  1  0  0  0
  5  6  1  0  0  0
  5 24  1  0  0  0
  6  8  1  0  0  0
  6  1  1  0  0  0
  6 25  1  0  0  0
  7 26  1  0  0  0
  8 27  1  0  0  0
  9  1  1  0  0  0
  9 28  1  0  0  0
 10  5  1  0  0  0
 10 29  1  0  0  0
 10 30  1  0  0  0
 11  3  1  0  0  0
 11 31  1  0  0  0
 12 10  1  0  0  0
 12 32  1  0  0  0
 13  7  1  0  0  0
 13 16  1  0  0  0
 14 13  2  0  0  0
 15 20  2  0  0  0
 15 33  1  0  0  0
 16 15  1  0  0  0
 17 16  2  0  0  0
 17 18  1  0  0  0
 17 34  1  0  0  0
 18 19  2  0  0  0
 18 35  1  0  0  0
 19 20  1  0  0  0
 19 36  1  0  0  0
 20 37  1  0  0  0
M  END
$$$$
