BGL
  CCTOOLS-0919241033

 48 48  0  0  1  0  0  0  0  0999 V2000
    0.9920   -0.4370   -2.1120 C   0  0  0  0  0
    1.9840   -0.1950   -1.1130 O   0  0  0  0  0
   -0.3680    0.0460   -1.6050 C   0  0  0  0  0
   -0.7000   -0.6410   -0.3980 O   0  0  0  0  0
   -1.4310   -0.2430   -2.6700 C   0  0  0  0  0
   -2.6790    0.3350   -2.2810 O   0  0  0  0  0
   -0.9730    0.3660   -4.0000 C   0  0  0  0  0
   -1.8740   -0.0180   -5.0410 O   0  0  0  0  0
    0.4320   -0.1410   -4.3260 C   0  0  0  0  0
    1.3410    0.2640   -3.3040 O   0  0  0  0  0
    0.8830    0.4390   -5.6680 C   0  0  0  0  0
    2.1930   -0.0380   -5.9770 O   0  0  0  0  0
   -0.1810    0.1410    0.6790 C   0  0  0  0  0
   -0.5040   -0.5430    2.0080 C   0  0  0  0  0
    0.0510    0.2940    3.1610 C   0  0  0  0  0
   -0.2710   -0.3890    4.4910 C   0  0  0  0  0
    0.2840    0.4480    5.6440 C   0  0  0  0  0
   -0.0380   -0.2360    6.9740 C   0  0  0  0  0
    0.5170    0.6010    8.1270 C   0  0  0  0  0
    0.1930   -0.0820    9.4570 C   0  0  0  0  0
    0.9420   -1.5050   -2.3230 H   0  0  0  0  0
    2.8250   -0.5140   -1.4710 H   0  0  0  0  0
   -0.3260    1.1180   -1.4150 H   0  0  0  0  0
   -1.5480   -1.3210   -2.7840 H   0  0  0  0  0
   -3.3110    0.1350   -2.9850 H   0  0  0  0  0
   -0.9580    1.4530   -3.9150 H   0  0  0  0  0
   -1.5450    0.3820   -5.8570 H   0  0  0  0  0
    0.4190   -1.2290   -4.3880 H   0  0  0  0  0
    0.1890    0.1290   -6.4490 H   0  0  0  0  0
    0.8980    1.5270   -5.6060 H   0  0  0  0  0
    2.4390    0.3490   -6.8280 H   0  0  0  0  0
   -0.6350    1.1320    0.6600 H   0  0  0  0  0
    0.8990    0.2350    0.5710 H   0  0  0  0  0
   -0.0500   -1.5330    2.0270 H   0  0  0  0  0
   -1.5850   -0.6360    2.1150 H   0  0  0  0  0
   -0.4020    1.2850    3.1430 H   0  0  0  0  0
    1.1320    0.3880    3.0540 H   0  0  0  0  0
    0.1820   -1.3800    4.5100 H   0  0  0  0  0
   -1.3520   -0.4830    4.5980 H   0  0  0  0  0
   -0.1700    1.4390    5.6260 H   0  0  0  0  0
    1.3650    0.5420    5.5370 H   0  0  0  0  0
    0.4150   -1.2260    6.9930 H   0  0  0  0  0
   -1.1190   -0.3290    7.0810 H   0  0  0  0  0
    0.0620    1.5920    8.1080 H   0  0  0  0  0
    1.5970    0.6950    8.0200 H   0  0  0  0  0
    0.5890    0.5140   10.2780 H   0  0  0  0  0
   -0.8860   -0.1760    9.5640 H   0  0  0  0  0
    0.6480   -1.0730    9.4760 H   0  0  0  0  0
  1  2  1  0  0  0
  1  3  1  0  0  0
  1 10  1  0  0  0
  1 21  1  0  0  0
  2 22  1  0  0  0
  3  4  1  0  0  0
  3  5  1  0  0  0
  3 23  1  0  0  0
  4 13  1  0  0  0
  5  6  1  0  0  0
  5  7  1  0  0  0
  5 24  1  0  0  0
  6 25  1  0  0  0
  7  8  1  0  0  0
  7  9  1  0  0  0
  7 26  1  0  0  0
  8 27  1  0  0  0
  9 10  1  0  0  0
  9 11  1  0  0  0
  9 28  1  0  0  0
 11 12  1  0  0  0
 11 29  1  0  0  0
 11 30  1  0  0  0
 12 31  1  0  0  0
 13 14  1  0  0  0
 13 32  1  0  0  0
 13 33  1  0  0  0
 14 15  1  0  0  0
 14 34  1  0  0  0
 14 35  1  0  0  0
 15 16  1  0  0  0
 15 36  1  0  0  0
 15 37  1  0  0  0
 16 17  1  0  0  0
 16 38  1  0  0  0
 16 39  1  0  0  0
 17 18  1  0  0  0
 17 40  1  0  0  0
 17 41  1  0  0  0
 18 19  1  0  0  0
 18 42  1  0  0  0
 18 43  1  0  0  0
 19 20  1  0  0  0
 19 44  1  0  0  0
 19 45  1  0  0  0
 20 46  1  0  0  0
 20 47  1  0  0  0
 20 48  1  0  0  0
M  END
$$$$
