BGU
  CCTOOLS-0919241033

 24 26  0  0  0  0  0  0  0  0999 V2000
    2.9510    0.9980    0.0030 N   0  0  0  0  0
    1.6150    0.6170    0.0020 C   0  0  0  0  0
    0.4280    1.3210    0.0010 C   0  0  0  0  0
   -0.7820    0.6280   -0.0000 C   0  0  0  0  0
   -0.7960   -0.7900    0.0000 C   0  0  0  0  0
    0.4040   -1.4910    0.0010 C   0  0  0  0  0
    1.6110   -0.7940    0.0020 C   0  0  0  0  0
    2.9080   -1.1940    0.0030 N   0  0  0  0  0
    3.6960   -0.1450   -0.0030 C   0  0  0  0  0
    5.0710   -0.1910   -0.0040 N   0  0  0  0  0
   -1.9900   -1.4360   -0.0000 N   0  0  0  0  0
   -3.1220   -0.7810   -0.0010 C   0  0  0  0  0
   -4.2930   -1.4990   -0.0010 N   0  0  0  0  0
   -3.1950    0.5820   -0.0000 N   0  0  0  0  0
   -2.0690    1.3320   -0.0010 C   0  0  0  0  0
   -2.1220    2.5490   -0.0000 O   0  0  0  0  0
    3.2900    1.9070    0.0030 H   0  0  0  0  0
    0.4360    2.4010    0.0010 H   0  0  0  0  0
    0.4010   -2.5710    0.0020 H   0  0  0  0  0
    5.5280   -1.0470   -0.0010 H   0  0  0  0  0
    5.5840    0.6320   -0.0090 H   0  0  0  0  0
   -4.2670   -2.4680   -0.0010 H   0  0  0  0  0
   -5.1450   -1.0360   -0.0010 H   0  0  0  0  0
   -4.0620    1.0170   -0.0010 H   0  0  0  0  0
  1  2  1  0  0  0
  1 17  1  0  0  0
  2  3  1  0  0  0
  3  4  2  0  0  0
  3 18  1  0  0  0
  4 15  1  0  0  0
  5  4  1  0  0  0
  5 11  1  0  0  0
  6  5  2  0  0  0
  6 19  1  0  0  0
  7  2  2  0  0  0
  7  6  1  0  0  0
  8  7  1  0  0  0
  9  8  2  0  0  0
  9  1  1  0  0  0
 10  9  1  0  0  0
 10 20  1  0  0  0
 10 21  1  0  0  0
 11 12  2  0  0  0
 12 14  1  0  0  0
 12 13  1  0  0  0
 13 22  1  0  0  0
 13 23  1  0  0  0
 14 24  1  0  0  0
 15 16  2  0  0  0
 15 14  1  0  0  0
M  END
$$$$
