BHG
  CCTOOLS-0919241033

 42 42  0  0  1  0  0  0  0  0999 V2000
   -0.8660    0.5640    0.2870 C   0  0  0  0  0
    0.3550    1.0940   -0.2320 O   0  0  0  0  0
   -2.0240    1.4920   -0.0900 C   0  0  0  0  0
   -1.7810    2.7980    0.4360 O   0  0  0  0  0
   -3.3240    0.9340    0.5020 C   0  0  0  0  0
   -4.4350    1.7030    0.0370 O   0  0  0  0  0
   -3.4810   -0.5220    0.0500 C   0  0  0  0  0
   -3.6780   -0.5670   -1.3650 O   0  0  0  0  0
   -2.2140   -1.2980    0.4150 C   0  0  0  0  0
   -1.0910   -0.7330   -0.2600 O   0  0  0  0  0
   -2.3760   -2.7610   -0.0040 C   0  0  0  0  0
   -1.2470   -3.5130    0.4460 O   0  0  0  0  0
    1.4070    0.2570    0.2510 C   0  0  0  0  0
    2.7500    0.7720   -0.2710 C   0  0  0  0  0
    3.8760   -0.1240    0.2470 C   0  0  0  0  0
    5.2190    0.3910   -0.2750 C   0  0  0  0  0
    6.3450   -0.5050    0.2430 C   0  0  0  0  0
    7.6880    0.0100   -0.2800 C   0  0  0  0  0
   -0.7980    0.4930    1.3730 H   0  0  0  0  0
   -2.1110    1.5460   -1.1750 H   0  0  0  0  0
   -0.9570    3.1100    0.0390 H   0  0  0  0  0
   -3.2790    0.9760    1.5900 H   0  0  0  0  0
   -4.2940    2.6100    0.3430 H   0  0  0  0  0
   -4.3400   -0.9690    0.5520 H   0  0  0  0  0
   -4.4850   -0.0680   -1.5510 H   0  0  0  0  0
   -2.0540   -1.2450    1.4910 H   0  0  0  0  0
   -3.2840   -3.1670    0.4420 H   0  0  0  0  0
   -2.4440   -2.8230   -1.0900 H   0  0  0  0  0
   -1.3880   -4.4260    0.1620 H   0  0  0  0  0
    1.2490   -0.7630   -0.0970 H   0  0  0  0  0
    1.4110    0.2720    1.3410 H   0  0  0  0  0
    2.9080    1.7930    0.0780 H   0  0  0  0  0
    2.7450    0.7570   -1.3610 H   0  0  0  0  0
    3.7180   -1.1450   -0.1020 H   0  0  0  0  0
    3.8810   -0.1090    1.3370 H   0  0  0  0  0
    5.3770    1.4110    0.0730 H   0  0  0  0  0
    5.2150    0.3760   -1.3650 H   0  0  0  0  0
    6.1870   -1.5260   -0.1060 H   0  0  0  0  0
    6.3500   -0.4900    1.3330 H   0  0  0  0  0
    7.8460    1.0300    0.0690 H   0  0  0  0  0
    8.4910   -0.6290    0.0890 H   0  0  0  0  0
    7.6840   -0.0060   -1.3700 H   0  0  0  0  0
  1  2  1  0  0  0
  1  3  1  0  0  0
  1 10  1  0  0  0
  1 19  1  0  0  0
  2 13  1  0  0  0
  3  4  1  0  0  0
  3  5  1  0  0  0
  3 20  1  0  0  0
  4 21  1  0  0  0
  5  6  1  0  0  0
  5  7  1  0  0  0
  5 22  1  0  0  0
  6 23  1  0  0  0
  7  8  1  0  0  0
  7  9  1  0  0  0
  7 24  1  0  0  0
  8 25  1  0  0  0
  9 10  1  0  0  0
  9 11  1  0  0  0
  9 26  1  0  0  0
 11 12  1  0  0  0
 11 27  1  0  0  0
 11 28  1  0  0  0
 12 29  1  0  0  0
 13 14  1  0  0  0
 13 30  1  0  0  0
 13 31  1  0  0  0
 14 15  1  0  0  0
 14 32  1  0  0  0
 14 33  1  0  0  0
 15 16  1  0  0  0
 15 34  1  0  0  0
 15 35  1  0  0  0
 16 17  1  0  0  0
 16 36  1  0  0  0
 16 37  1  0  0  0
 17 18  1  0  0  0
 17 38  1  0  0  0
 17 39  1  0  0  0
 18 40  1  0  0  0
 18 41  1  0  0  0
 18 42  1  0  0  0
M  END
$$$$
