BHL
  CCTOOLS-0919241033

 21 20  0  0  0  0  0  0  0  0999 V2000
    0.1420    0.0000   -3.0740 BR  0  0  0  0  0
   -0.8420    0.0000   -1.3730 C   0  0  0  0  0
    0.1500    0.0000   -0.2090 C   0  0  0  0  0
   -0.6160    0.0000    1.1150 C   0  0  0  0  0
    0.3760    0.0000    2.2790 C   0  0  0  0  0
   -0.3900    0.0000    3.6030 C   0  0  0  0  0
    0.6020   -0.0000    4.7670 C   0  0  0  0  0
   -0.1140   -0.0000    6.0040 O   0  0  0  0  0
   -1.4690   -0.8890   -1.3160 H   0  0  0  0  0
   -1.4690    0.8900   -1.3160 H   0  0  0  0  0
    0.7760    0.8900   -0.2650 H   0  0  0  0  0
    0.7760   -0.8900   -0.2650 H   0  0  0  0  0
   -1.2430   -0.8900    1.1710 H   0  0  0  0  0
   -1.2430    0.8900    1.1710 H   0  0  0  0  0
    1.0020    0.8890    2.2220 H   0  0  0  0  0
    1.0020   -0.8900    2.2220 H   0  0  0  0  0
   -1.0170   -0.8900    3.6600 H   0  0  0  0  0
   -1.0170    0.8900    3.6600 H   0  0  0  0  0
    1.2280    0.8890    4.7100 H   0  0  0  0  0
    1.2280   -0.8900    4.7100 H   0  0  0  0  0
    0.5460   -0.0000    6.7090 H   0  0  0  0  0
  1  2  1  0  0  0
  2  3  1  0  0  0
  2  9  1  0  0  0
  2 10  1  0  0  0
  3  4  1  0  0  0
  3 11  1  0  0  0
  3 12  1  0  0  0
  4  5  1  0  0  0
  4 13  1  0  0  0
  4 14  1  0  0  0
  5  6  1  0  0  0
  5 15  1  0  0  0
  5 16  1  0  0  0
  6  7  1  0  0  0
  6 17  1  0  0  0
  6 18  1  0  0  0
  7  8  1  0  0  0
  7 19  1  0  0  0
  7 20  1  0  0  0
  8 21  1  0  0  0
M  END
$$$$
