BHM
  CCTOOLS-0919241033

 31 31  0  0  1  0  0  0  0  0999 V2000
    5.7430    0.1410    0.3510 BR  0  0  0  0  0
    3.9170   -0.5160    0.6670 C   0  0  0  0  0
    2.9880    0.0130   -0.4270 C   0  0  0  0  0
    3.0790    1.4380   -0.4820 O   0  0  0  0  0
    3.4020   -0.5770   -1.7770 C   0  0  0  0  0
    1.5690   -0.3880   -0.1180 C   0  0  0  0  0
    1.3500   -1.3640    0.5680 O   0  0  0  0  0
    0.5420    0.3370   -0.6050 N   0  0  0  0  0
   -0.7740   -0.0980   -0.4150 C   0  0  0  0  0
   -1.7950    0.8270   -0.2450 C   0  0  0  0  0
   -1.0610   -1.4570   -0.3910 C   0  0  0  0  0
   -2.3610   -1.8830   -0.2030 C   0  0  0  0  0
   -3.3770   -0.9590   -0.0400 C   0  0  0  0  0
   -4.7690   -1.4190    0.1600 N   0  3  0  0  0
   -5.0200   -2.6110    0.1810 O   0  0  0  0  0
   -5.6650   -0.6060    0.3040 O   0  5  0  0  0
   -3.0940    0.3950   -0.0640 C   0  0  0  0  0
   -4.2040    1.3980    0.1140 C   0  0  0  0  0
   -3.6770    2.6930    0.0530 F   0  0  0  0  0
   -5.1510    1.2320   -0.9030 F   0  0  0  0  0
   -4.8160    1.2020    1.3570 F   0  0  0  0  0
    3.5690   -0.1670    1.6390 H   0  0  0  0  0
    3.9150   -1.6060    0.6500 H   0  0  0  0  0
    2.8100    1.7690    0.3860 H   0  0  0  0  0
    4.4290   -0.2870   -2.0000 H   0  0  0  0  0
    3.3330   -1.6640   -1.7350 H   0  0  0  0  0
    2.7400   -0.2000   -2.5570 H   0  0  0  0  0
    0.7160    1.1610   -1.0860 H   0  0  0  0  0
   -1.5750    1.8850   -0.2640 H   0  0  0  0  0
   -0.2680   -2.1790   -0.5180 H   0  0  0  0  0
   -2.5850   -2.9390   -0.1850 H   0  0  0  0  0
  1  2  1  0  0  0
  2  3  1  0  0  0
  2 22  1  0  0  0
  2 23  1  0  0  0
  3  4  1  0  0  0
  3  5  1  0  0  0
  3  6  1  0  0  0
  4 24  1  0  0  0
  5 25  1  0  0  0
  5 26  1  0  0  0
  5 27  1  0  0  0
  6  7  2  0  0  0
  6  8  1  0  0  0
  8  9  1  0  0  0
  8 28  1  0  0  0
  9 10  2  0  0  0
  9 11  1  0  0  0
 10 17  1  0  0  0
 10 29  1  0  0  0
 11 12  2  0  0  0
 11 30  1  0  0  0
 12 13  1  0  0  0
 12 31  1  0  0  0
 13 14  1  0  0  0
 13 17  2  0  0  0
 14 15  2  0  0  0
 14 16  1  0  0  0
 17 18  1  0  0  0
 18 19  1  0  0  0
 18 20  1  0  0  0
 18 21  1  0  0  0
M  CHG  1  14   1
M  CHG  1  16  -1
M  END
$$$$
