BM6
  CCTOOLS-0919241034

 55 58  0  0  0  0  0  0  0  0999 V2000
    5.5310    2.6680    1.0670 O   0  0  0  0  0
    5.8210    2.3620   -1.1050 O   0  5  0  0  0
    1.1140   -2.6900   -1.0850 O   0  0  0  0  0
    0.8070   -2.3680    1.2060 O   0  0  0  0  0
    5.1970    2.0930   -0.0240 C   0  0  0  0  0
    4.0900    1.1180   -0.0340 C   0  0  0  0  0
    3.4040    0.8220    1.1470 C   0  0  0  0  0
    2.3700   -0.0900    1.1300 C   0  0  0  0  0
    2.0100   -0.7110   -0.0530 C   0  0  0  0  0
    2.6870   -0.4260   -1.2260 C   0  0  0  0  0
    3.7210    0.4870   -1.2250 C   0  0  0  0  0
    0.8780   -1.7060   -0.0640 C   0  0  0  0  0
   -0.4210   -0.9930   -0.3370 C   0  0  0  0  0
   -0.8650   -0.8350   -1.6360 C   0  0  0  0  0
   -2.0540   -0.1790   -1.8790 C   0  0  0  0  0
   -2.8100    0.3240   -0.8260 C   0  0  0  0  0
   -2.3680    0.1640    0.4670 C   0  0  0  0  0
   -1.1700   -0.4950    0.7090 C   0  0  0  0  0
   -3.1380    0.6780    1.6560 C   0  0  0  0  0
   -4.1640    1.7230    1.2200 C   0  0  0  0  0
   -4.9900    1.1390    0.0680 C   0  0  0  0  0
   -4.0930    1.0370   -1.1640 C   0  0  0  0  0
    1.7470   -3.7950   -0.3970 C   0  0  0  0  0
    1.0160   -3.7750    0.9690 C   0  0  0  0  0
   -2.1650    1.3110    2.6520 C   0  0  0  0  0
   -3.8620   -0.4890    2.3300 C   0  0  0  0  0
   -4.8280    0.2620   -2.2600 C   0  0  0  0  0
   -3.7710    2.4440   -1.6710 C   0  0  0  0  0
    3.6840    1.3060    2.0710 H   0  0  0  0  0
    1.8400   -0.3210    2.0420 H   0  0  0  0  0
    2.4010   -0.9150   -2.1450 H   0  0  0  0  0
    4.2460    0.7120   -2.1410 H   0  0  0  0  0
   -0.2840   -1.2240   -2.4590 H   0  0  0  0  0
   -2.4000   -0.0550   -2.8940 H   0  0  0  0  0
   -0.8220   -0.6190    1.7240 H   0  0  0  0  0
   -3.6500    2.6230    0.8840 H   0  0  0  0  0
   -4.8200    1.9640    2.0570 H   0  0  0  0  0
   -5.8350    1.7930   -0.1460 H   0  0  0  0  0
   -5.3520    0.1480    0.3420 H   0  0  0  0  0
    2.8150   -3.6160   -0.2710 H   0  0  0  0  0
    1.5690   -4.7340   -0.9210 H   0  0  0  0  0
    1.6440   -4.2080    1.7480 H   0  0  0  0  0
    0.0630   -4.3000    0.9040 H   0  0  0  0  0
   -2.7160    1.6660    3.5230 H   0  0  0  0  0
   -1.4310    0.5680    2.9650 H   0  0  0  0  0
   -1.6540    2.1490    2.1790 H   0  0  0  0  0
   -4.5640   -0.9370    1.6250 H   0  0  0  0  0
   -3.1330   -1.2380    2.6420 H   0  0  0  0  0
   -4.4050   -0.1250    3.2020 H   0  0  0  0  0
   -4.1940    0.1950   -3.1440 H   0  0  0  0  0
   -5.0590   -0.7420   -1.9020 H   0  0  0  0  0
   -5.7530    0.7800   -2.5130 H   0  0  0  0  0
   -4.6970    2.9600   -1.9250 H   0  0  0  0  0
   -3.2470    2.9990   -0.8930 H   0  0  0  0  0
   -3.1380    2.3750   -2.5560 H   0  0  0  0  0
  1  5  2  0  0  0
  2  5  1  0  0  0
  3 12  1  0  0  0
  3 23  1  0  0  0
  4 12  1  0  0  0
  4 24  1  0  0  0
  5  6  1  0  0  0
  6  7  2  0  0  0
  6 11  1  0  0  0
  7  8  1  0  0  0
  7 29  1  0  0  0
  8  9  2  0  0  0
  8 30  1  0  0  0
  9 10  1  0  0  0
  9 12  1  0  0  0
 10 11  2  0  0  0
 10 31  1  0  0  0
 11 32  1  0  0  0
 12 13  1  0  0  0
 13 14  2  0  0  0
 13 18  1  0  0  0
 14 15  1  0  0  0
 14 33  1  0  0  0
 15 16  2  0  0  0
 15 34  1  0  0  0
 16 17  1  0  0  0
 16 22  1  0  0  0
 17 18  2  0  0  0
 17 19  1  0  0  0
 18 35  1  0  0  0
 19 20  1  0  0  0
 19 25  1  0  0  0
 19 26  1  0  0  0
 20 21  1  0  0  0
 20 36  1  0  0  0
 20 37  1  0  0  0
 21 22  1  0  0  0
 21 38  1  0  0  0
 21 39  1  0  0  0
 22 27  1  0  0  0
 22 28  1  0  0  0
 23 24  1  0  0  0
 23 40  1  0  0  0
 23 41  1  0  0  0
 24 42  1  0  0  0
 24 43  1  0  0  0
 25 44  1  0  0  0
 25 45  1  0  0  0
 25 46  1  0  0  0
 26 47  1  0  0  0
 26 48  1  0  0  0
 26 49  1  0  0  0
 27 50  1  0  0  0
 27 51  1  0  0  0
 27 52  1  0  0  0
 28 53  1  0  0  0
 28 54  1  0  0  0
 28 55  1  0  0  0
M  CHG  1   2  -1
M  END
$$$$
