BMC
  CCTOOLS-0919241034

 28 30  0  0  0  0  0  0  0  0999 V2000
    1.7150    0.8360    0.0540 C   0  0  0  0  0
    0.8020   -0.2150    0.0320 C   0  0  0  0  0
    1.2580   -1.5310    0.0240 C   0  0  0  0  0
    2.6120   -1.7930    0.0370 C   0  0  0  0  0
    3.5240   -0.7480    0.0590 C   0  0  0  0  0
    3.0730    0.5710    0.0670 C   0  0  0  0  0
    4.1560    1.4020    0.0880 O   0  0  0  0  0
    5.2720    0.5890   -0.3210 C   0  0  0  0  0
    4.8890   -0.7420    0.0770 O   0  0  0  0  0
   -0.6560    0.0670    0.0190 C   0  0  0  0  0
   -1.6870   -0.8890   -0.0030 C   0  0  0  0  0
   -2.8610   -0.1590   -0.0090 C   0  0  0  0  0
   -2.4980    1.1580    0.0090 N   0  0  0  0  0
   -1.2170    1.2580    0.0310 N   0  0  0  0  0
   -4.2310   -0.6950   -0.0310 C   0  0  0  0  0
   -5.2840    0.1470   -0.0340 O   0  0  0  0  0
   -4.4130   -1.8960   -0.0450 O   0  0  0  0  0
   -3.4300    2.2890    0.0100 C   0  0  0  0  0
    1.3650    1.8580    0.0560 H   0  0  0  0  0
    0.5500   -2.3480    0.0070 H   0  0  0  0  0
    2.9640   -2.8140    0.0310 H   0  0  0  0  0
    5.4100    0.6430   -1.4010 H   0  0  0  0  0
    6.1800    0.8960    0.1980 H   0  0  0  0  0
   -1.5840   -1.9640   -0.0140 H   0  0  0  0  0
   -3.6730    2.5580    1.0370 H   0  0  0  0  0
   -2.9680    3.1410   -0.4900 H   0  0  0  0  0
   -4.3410    2.0080   -0.5180 H   0  0  0  0  0
   -6.1640   -0.2520   -0.0490 H   0  0  0  0  0
  1  2  2  0  0  0
  1  6  1  0  0  0
  1 19  1  0  0  0
  2  3  1  0  0  0
  2 10  1  0  0  0
  3  4  2  0  0  0
  3 20  1  0  0  0
  4  5  1  0  0  0
  4 21  1  0  0  0
  5  6  2  0  0  0
  5  9  1  0  0  0
  6  7  1  0  0  0
  7  8  1  0  0  0
  8  9  1  0  0  0
  8 22  1  0  0  0
  8 23  1  0  0  0
 10 11  1  0  0  0
 10 14  2  0  0  0
 11 12  2  0  0  0
 11 24  1  0  0  0
 12 13  1  0  0  0
 12 15  1  0  0  0
 13 14  1  0  0  0
 13 18  1  0  0  0
 15 16  1  0  0  0
 15 17  2  0  0  0
 16 28  1  0  0  0
 18 25  1  0  0  0
 18 26  1  0  0  0
 18 27  1  0  0  0
M  END
$$$$
