BMM
  CCTOOLS-0919241034

  5  4  0  0  0  0  0  0  0  0999 V2000
   -0.5120    0.5190   -0.8110 C   0  0  0  0  0
   -1.9430    1.5710   -0.0430 BR  0  0  0  0  0
    0.1670    1.1980   -1.3280 H   0  0  0  0  0
    0.0000   -0.0000    0.0000 H   0  0  0  0  0
   -0.9540   -0.1930   -1.5100 H   0  0  0  0  0
  1  2  1  0  0  0
  1  3  1  0  0  0
  1  4  1  0  0  0
  1  5  1  0  0  0
M  END
$$$$
