BMT
  CCTOOLS-1004241119

 33 32  0  0  1  0  0  0  0  0999 V2000
    1.4460   -1.4130    0.5870 N   0  0  0  0  0
    2.0840   -2.6120    0.0260 C   0  0  0  0  0
    1.6060   -0.2630   -0.3120 C   0  0  0  0  0
    2.9080    0.4330   -0.0110 C   0  0  0  0  0
    3.6300    0.0130    0.8630 O   0  0  0  0  0
    3.2670    1.5190   -0.7140 O   0  0  0  0  0
    0.4460    0.7130   -0.1020 C   0  0  0  0  0
    0.4330    1.1520    1.2570 O   0  0  0  0  0
   -0.8750    0.0120   -0.4250 C   0  0  0  0  0
   -0.8960   -0.3800   -1.9040 C   0  0  0  0  0
   -2.0400    0.9590   -0.1310 C   0  0  0  0  0
   -3.3430    0.2290   -0.3310 C   0  0  0  0  0
   -4.2260    0.1880    0.6360 C   0  0  0  0  0
   -5.5290   -0.5420    0.4360 C   0  0  0  0  0
    0.4720   -1.5830    0.7880 H   0  0  0  0  0
    1.9510   -3.4490    0.7120 H   0  0  0  0  0
    1.6260   -2.8520   -0.9330 H   0  0  0  0  0
    3.1480   -2.4250   -0.1160 H   0  0  0  0  0
    1.6090   -0.6070   -1.3460 H   0  0  0  0  0
    4.1120    1.9310   -0.4840 H   0  0  0  0  0
    0.5710    1.5730   -0.7610 H   0  0  0  0  0
    0.3250    0.4380    1.9000 H   0  0  0  0  0
   -0.9700   -0.8830    0.1900 H   0  0  0  0  0
   -0.8010    0.5150   -2.5180 H   0  0  0  0  0
   -0.0670   -1.0550   -2.1130 H   0  0  0  0  0
   -1.8380   -0.8800   -2.1330 H   0  0  0  0  0
   -1.9730    1.3080    0.8990 H   0  0  0  0  0
   -1.9940    1.8120   -0.8080 H   0  0  0  0  0
   -3.5500   -0.2590   -1.2720 H   0  0  0  0  0
   -4.0190    0.6760    1.5770 H   0  0  0  0  0
   -6.1290   -0.4680    1.3430 H   0  0  0  0  0
   -6.0720   -0.0950   -0.3960 H   0  0  0  0  0
   -5.3280   -1.5910    0.2180 H   0  0  0  0  0
  1  2  1  0  0  0
  1  3  1  0  0  0
  1 15  1  0  0  0
  2 16  1  0  0  0
  2 17  1  0  0  0
  2 18  1  0  0  0
  3  4  1  0  0  0
  3  7  1  0  0  0
  3 19  1  0  0  0
  4  5  2  0  0  0
  4  6  1  0  0  0
  6 20  1  0  0  0
  7  8  1  0  0  0
  7  9  1  0  0  0
  7 21  1  0  0  0
  8 22  1  0  0  0
  9 10  1  0  0  0
  9 11  1  0  0  0
  9 23  1  0  0  0
 10 24  1  0  0  0
 10 25  1  0  0  0
 10 26  1  0  0  0
 11 12  1  0  0  0
 11 27  1  0  0  0
 11 28  1  0  0  0
 12 13  2  0  0  0
 12 29  1  0  0  0
 13 14  1  0  0  0
 13 30  1  0  0  0
 14 31  1  0  0  0
 14 32  1  0  0  0
 14 33  1  0  0  0
M  END
$$$$
