BNS
  CCTOOLS-0919241034

 16 16  0  0  0  0  0  0  0  0999 V2000
   -3.1140   -0.0000   -0.0520 C   0  0  0  0  0
   -2.4230   -1.1970   -0.0300 C   0  0  0  0  0
   -1.0410   -1.1970    0.0140 C   0  0  0  0  0
   -0.3510    0.0000    0.0350 C   0  0  0  0  0
    1.4110    0.0000    0.0920 S   0  0  0  0  0
    1.7940    1.2500    0.6480 O   0  0  0  0  0
    1.7940   -1.2490    0.6500 O   0  0  0  0  0
   -1.0410    1.1970    0.0120 C   0  0  0  0  0
   -2.4230    1.1970   -0.0300 C   0  0  0  0  0
   -4.1930   -0.0000   -0.0900 H   0  0  0  0  0
   -2.9630   -2.1320   -0.0470 H   0  0  0  0  0
   -0.5020   -2.1320    0.0320 H   0  0  0  0  0
   -0.5020    2.1320    0.0290 H   0  0  0  0  0
   -2.9630    2.1320   -0.0470 H   0  0  0  0  0
    1.9070   -0.0010   -1.3470 O   0  0  0  0  0
    2.8710   -0.0010   -1.4300 H   0  0  0  0  0
  1  2  2  0  0  0
  1  9  1  0  0  0
  1 10  1  0  0  0
  2  3  1  0  0  0
  2 11  1  0  0  0
  3  4  2  0  0  0
  3 12  1  0  0  0
  4  5  1  0  0  0
  4  8  1  0  0  0
  5  6  2  0  0  0
  5  7  2  0  0  0
  8  9  2  0  0  0
  8 13  1  0  0  0
  9 14  1  0  0  0
 15  5  1  0  0  0
 15 16  1  0  0  0
M  END
$$$$
