BO3
  CCTOOLS-0919241034

  7  6  0  0  0  0  0  0  0  0999 V2000
   -0.0210    0.0000   -0.0210 B   0  0  0  0  0
   -1.0210    0.0000    0.9870 O   0  0  0  0  0
   -0.3950    0.0000   -1.3910 O   0  0  0  0  0
    1.3510    0.0000    0.3400 O   0  0  0  0  0
   -0.5600    0.0000    1.8370 H   0  0  0  0  0
    0.4240    0.0000   -1.9040 H   0  0  0  0  0
    1.3860    0.0000    1.3060 H   0  0  0  0  0
  1  2  1  0  0  0
  1  3  1  0  0  0
  1  4  1  0  0  0
  2  5  1  0  0  0
  3  6  1  0  0  0
  4  7  1  0  0  0
M  END
$$$$
