BOA
  CCTOOLS-0919241034

 14 15  0  0  0  0  0  0  0  0999 V2000
    2.6520    0.0330   -1.6780 O   0  0  0  0  0
    1.4030    0.0190   -1.1530 C   0  0  0  0  0
    1.2200    0.0150    0.1620 N   0  0  0  0  0
    0.0060    0.0020    0.6830 C   0  0  0  0  0
   -0.1760   -0.0010    2.5650 BR  0  0  0  0  0
    0.2830    0.0140   -1.9820 C   0  0  0  0  0
   -0.9920   -0.0040   -1.3910 C   0  0  0  0  0
   -1.0800   -0.0060   -0.0580 N   0  0  0  0  0
    0.0720    0.0090   -3.3450 N   0  0  0  0  0
   -1.2650   -0.0030   -3.5420 C   0  0  0  0  0
   -1.8870   -0.0110   -2.3960 N   0  0  0  0  0
    2.9200   -0.8890   -1.7880 H   0  0  0  0  0
    0.7550    0.0170   -4.0330 H   0  0  0  0  0
   -1.7470   -0.0070   -4.5080 H   0  0  0  0  0
  1  2  1  0  0  0
  1 12  1  0  0  0
  2  3  2  0  0  0
  2  6  1  0  0  0
  3  4  1  0  0  0
  4  5  1  0  0  0
  4  8  2  0  0  0
  6  7  2  0  0  0
  6  9  1  0  0  0
  7  8  1  0  0  0
  7 11  1  0  0  0
  9 10  1  0  0  0
  9 13  1  0  0  0
 10 11  2  0  0  0
 10 14  1  0  0  0
M  END
$$$$
