BOG
  CCTOOLS-0919241034

 48 48  0  0  1  0  0  0  0  0999 V2000
   -0.6430   -0.1950   -1.7660 C   0  0  0  0  0
   -1.2390    0.2290   -0.5380 O   0  0  0  0  0
   -1.5340    0.2260   -2.9360 C   0  0  0  0  0
   -2.8310   -0.3520   -2.7830 O   0  0  0  0  0
   -0.9040   -0.2640   -4.2450 C   0  0  0  0  0
   -1.6420    0.2460   -5.3570 O   0  0  0  0  0
    0.5410    0.2390   -4.3120 C   0  0  0  0  0
    1.1950   -0.3270   -5.4490 O   0  0  0  0  0
    1.2750   -0.1820   -3.0370 C   0  0  0  0  0
    0.6440    0.4020   -1.9000 O   0  0  0  0  0
    2.7290    0.2870   -3.1100 C   0  0  0  0  0
    3.4190   -0.1110   -1.9230 O   0  0  0  0  0
   -0.3680   -0.1940    0.5110 C   0  0  0  0  0
   -0.9510    0.2310    1.8600 C   0  0  0  0  0
   -0.0180   -0.2210    2.9850 C   0  0  0  0  0
   -0.6010    0.2040    4.3340 C   0  0  0  0  0
    0.3310   -0.2490    5.4590 C   0  0  0  0  0
   -0.2510    0.1760    6.8080 C   0  0  0  0  0
    0.6810   -0.2760    7.9320 C   0  0  0  0  0
    0.0980    0.1490    9.2810 C   0  0  0  0  0
   -0.5400   -1.2810   -1.7620 H   0  0  0  0  0
   -1.6190    1.3120   -2.9580 H   0  0  0  0  0
   -3.1900   -0.0170   -1.9500 H   0  0  0  0  0
   -0.9130   -1.3540   -4.2700 H   0  0  0  0  0
   -2.5430   -0.0940   -5.2750 H   0  0  0  0  0
    0.5450    1.3260   -4.3920 H   0  0  0  0  0
    0.7010   -0.0360   -6.2280 H   0  0  0  0  0
    1.2500   -1.2680   -2.9470 H   0  0  0  0  0
    3.2130   -0.1580   -3.9780 H   0  0  0  0  0
    2.7560    1.3730   -3.1970 H   0  0  0  0  0
    4.3290    0.2040   -2.0100 H   0  0  0  0  0
    0.6110    0.2640    0.3780 H   0  0  0  0  0
   -0.2680   -1.2790    0.4850 H   0  0  0  0  0
   -1.9300   -0.2260    1.9940 H   0  0  0  0  0
   -1.0510    1.3160    1.8860 H   0  0  0  0  0
    0.9610    0.2360    2.8520 H   0  0  0  0  0
    0.0810   -1.3070    2.9590 H   0  0  0  0  0
   -1.5810   -0.2540    4.4670 H   0  0  0  0  0
   -0.7010    1.2890    4.3600 H   0  0  0  0  0
    1.3110    0.2090    5.3250 H   0  0  0  0  0
    0.4310   -1.3340    5.4330 H   0  0  0  0  0
   -1.2310   -0.2810    6.9410 H   0  0  0  0  0
   -0.3510    1.2610    6.8340 H   0  0  0  0  0
    1.6610    0.1810    7.7990 H   0  0  0  0  0
    0.7810   -1.3610    7.9060 H   0  0  0  0  0
    0.7630   -0.1730   10.0830 H   0  0  0  0  0
   -0.0010    1.2340    9.3080 H   0  0  0  0  0
   -0.8810   -0.3090    9.4150 H   0  0  0  0  0
  1  2  1  0  0  0
  1  3  1  0  0  0
  1 10  1  0  0  0
  1 21  1  0  0  0
  2 13  1  0  0  0
  3  4  1  0  0  0
  3  5  1  0  0  0
  3 22  1  0  0  0
  4 23  1  0  0  0
  5  6  1  0  0  0
  5  7  1  0  0  0
  5 24  1  0  0  0
  6 25  1  0  0  0
  7  8  1  0  0  0
  7  9  1  0  0  0
  7 26  1  0  0  0
  8 27  1  0  0  0
  9 10  1  0  0  0
  9 11  1  0  0  0
  9 28  1  0  0  0
 11 12  1  0  0  0
 11 29  1  0  0  0
 11 30  1  0  0  0
 12 31  1  0  0  0
 13 14  1  0  0  0
 13 32  1  0  0  0
 13 33  1  0  0  0
 14 15  1  0  0  0
 14 34  1  0  0  0
 14 35  1  0  0  0
 15 16  1  0  0  0
 15 36  1  0  0  0
 15 37  1  0  0  0
 16 17  1  0  0  0
 16 38  1  0  0  0
 16 39  1  0  0  0
 17 18  1  0  0  0
 17 40  1  0  0  0
 17 41  1  0  0  0
 18 19  1  0  0  0
 18 42  1  0  0  0
 18 43  1  0  0  0
 19 20  1  0  0  0
 19 44  1  0  0  0
 19 45  1  0  0  0
 20 46  1  0  0  0
 20 47  1  0  0  0
 20 48  1  0  0  0
M  END
$$$$
