BPH
  CCTOOLS-0919241034

141146  0  0  1  0  0  0  0  0999 V2000
   -3.3620    2.7550   -2.8850 O   0  0  0  0  0
   -2.9810    3.4740   -1.9920 C   0  0  0  0  0
   -2.2300    4.5510   -2.2730 O   0  0  0  0  0
   -1.9160    4.7900   -3.6700 C   0  0  0  0  0
   -3.3530    3.1660   -0.5640 C   0  0  0  0  0
   -4.1980    1.9210   -0.5020 C   0  0  0  0  0
   -5.4420    2.2580    0.0400 C   0  0  0  0  0
   -5.5010    3.6320    0.3480 C   0  0  0  0  0
   -4.2250    4.2670    0.0010 C   0  0  0  0  0
   -3.9290    5.4360    0.1380 O   0  0  0  0  0
   -6.7720    3.8850    0.8760 C   0  0  0  0  0
   -7.2900    5.2200    1.3480 C   0  0  0  0  0
   -7.4720    2.6810    0.8870 C   0  0  0  0  0
   -6.6530    1.6940    0.3800 N   0  0  0  0  0
   -8.7850    2.4910    1.3310 C   0  0  0  0  0
   -9.3650    1.2370    1.2910 C   0  0  0  0  0
  -10.7810    0.9500    1.7480 C   0  0  0  0  0
  -10.9450    1.2660    3.2360 C   0  0  0  0  0
  -12.4060    1.0690    3.6410 C   0  0  0  0  0
  -10.9310   -0.5600    1.4930 C   0  0  0  0  0
  -12.0350   -0.8300    0.4680 C   0  0  0  0  0
   -9.5680   -0.9530    0.9320 C   0  0  0  0  0
   -8.8100    0.1170    0.8690 N   0  0  0  0  0
   -9.2740   -2.2530    0.5850 C   0  0  0  0  0
   -8.0840   -2.7340    0.0600 C   0  0  0  0  0
   -7.8990   -4.1160   -0.2460 C   0  0  0  0  0
   -8.8790   -5.1870   -0.0510 C   0  0  0  0  0
   -9.7740   -5.6060   -1.1900 C   0  0  0  0  0
   -8.9710   -5.7370    1.0260 O   0  0  0  0  0
   -6.6160   -4.2560   -0.7620 C   0  0  0  0  0
   -5.9800   -5.5410   -1.2280 C   0  0  0  0  0
   -6.0220   -2.9900   -0.7720 C   0  0  0  0  0
   -6.9240   -2.0830   -0.2640 N   0  0  0  0  0
   -4.7220   -2.7720   -1.2440 C   0  0  0  0  0
   -4.1100   -1.5400   -1.2430 C   0  0  0  0  0
   -2.7040   -1.2790   -1.7530 C   0  0  0  0  0
   -2.6020   -1.5960   -3.2460 C   0  0  0  0  0
   -2.5180    0.2320   -1.5020 C   0  0  0  0  0
   -3.8420    0.6450   -0.9020 C   0  0  0  0  0
   -4.6290   -0.4090   -0.8110 N   0  0  0  0  0
   -1.3760    0.4800   -0.5140 C   0  0  0  0  0
   -0.0560    0.0180   -1.1330 C   0  0  0  0  0
    1.0530    0.1720   -0.1250 C   0  0  0  0  0
    0.8130    0.6080    0.9760 O   0  0  0  0  0
    2.3090   -0.1740   -0.4500 O   0  0  0  0  0
    3.3260    0.0020    0.5710 C   0  0  0  0  0
    4.6630   -0.4360    0.0290 C   0  0  0  0  0
    5.4380   -1.2110    0.7460 C   0  0  0  0  0
    5.0550   -1.5590    2.1610 C   0  0  0  0  0
    6.7150   -1.7530    0.1560 C   0  0  0  0  0
    7.8820   -0.8420    0.5410 C   0  0  0  0  0
    9.1780   -1.3930   -0.0580 C   0  0  0  0  0
   10.3450   -0.4820    0.3270 C   0  0  0  0  0
   10.1540    0.8920   -0.3170 C   0  0  0  0  0
   11.6560   -1.0980   -0.1650 C   0  0  0  0  0
   12.8330   -0.2530    0.3270 C   0  0  0  0  0
   14.1440   -0.8690   -0.1650 C   0  0  0  0  0
   15.3210   -0.0240    0.3270 C   0  0  0  0  0
   15.2580    1.3620   -0.3170 C   0  0  0  0  0
   16.6350   -0.7060   -0.0580 C   0  0  0  0  0
   17.8090    0.0720    0.5400 C   0  0  0  0  0
   19.1230   -0.6100    0.1550 C   0  0  0  0  0
   20.2960    0.1690    0.7540 C   0  0  0  0  0
   20.2330    0.0920    2.2800 C   0  0  0  0  0
   21.6130   -0.4400    0.2670 C   0  0  0  0  0
   -1.3060    5.6890   -3.7570 H   0  0  0  0  0
   -1.3660    3.9380   -4.0690 H   0  0  0  0  0
   -2.8400    4.9220   -4.2330 H   0  0  0  0  0
   -2.4550    3.0450    0.0420 H   0  0  0  0  0
   -7.7680    5.7380    0.5170 H   0  0  0  0  0
   -8.0160    5.0660    2.1470 H   0  0  0  0  0
   -6.4600    5.8200    1.7210 H   0  0  0  0  0
   -6.8890    0.7580    0.2800 H   0  0  0  0  0
   -9.3550    3.3290    1.7100 H   0  0  0  0  0
  -11.5000    1.5140    1.1530 H   0  0  0  0  0
  -10.3120    0.5990    3.8210 H   0  0  0  0  0
  -10.6520    2.3000    3.4210 H   0  0  0  0  0
  -13.0470    1.6680    2.9940 H   0  0  0  0  0
  -12.6720    0.0170    3.5430 H   0  0  0  0  0
  -12.5420    1.3830    4.6770 H   0  0  0  0  0
  -11.1320   -1.0900    2.4240 H   0  0  0  0  0
  -11.7860   -0.3370   -0.4720 H   0  0  0  0  0
  -12.1230   -1.9040    0.3030 H   0  0  0  0  0
  -12.9810   -0.4410    0.8440 H   0  0  0  0  0
  -10.0760   -2.9900    0.7430 H   0  0  0  0  0
   -9.2540   -6.3370   -1.8100 H   0  0  0  0  0
  -10.6850   -6.0510   -0.7910 H   0  0  0  0  0
  -10.0280   -4.7340   -1.7920 H   0  0  0  0  0
   -6.1900   -5.6870   -2.2870 H   0  0  0  0  0
   -4.9020   -5.4890   -1.0750 H   0  0  0  0  0
   -6.3880   -6.3760   -0.6580 H   0  0  0  0  0
   -6.7630   -1.1330   -0.1540 H   0  0  0  0  0
   -4.1680   -3.6260   -1.6330 H   0  0  0  0  0
   -1.9740   -1.8570   -1.1860 H   0  0  0  0  0
   -3.3170   -0.9860   -3.7970 H   0  0  0  0  0
   -1.5930   -1.3780   -3.5960 H   0  0  0  0  0
   -2.8220   -2.6510   -3.4090 H   0  0  0  0  0
   -2.3370    0.7600   -2.4390 H   0  0  0  0  0
   -1.3170    1.5450   -0.2860 H   0  0  0  0  0
   -1.5620   -0.0780    0.4040 H   0  0  0  0  0
   -0.1390   -1.0290   -1.4250 H   0  0  0  0  0
    0.1650    0.6230   -2.0120 H   0  0  0  0  0
    3.3770    1.0530    0.8560 H   0  0  0  0  0
    3.0730   -0.6000    1.4440 H   0  0  0  0  0
    4.9810   -0.1120   -0.9510 H   0  0  0  0  0
    4.3800   -2.4150    2.1540 H   0  0  0  0  0
    5.9510   -1.8070    2.7300 H   0  0  0  0  0
    4.5560   -0.7070    2.6220 H   0  0  0  0  0
    6.8950   -2.7570    0.5410 H   0  0  0  0  0
    6.6260   -1.7910   -0.9300 H   0  0  0  0  0
    7.7020    0.1620    0.1560 H   0  0  0  0  0
    7.9710   -0.8050    1.6270 H   0  0  0  0  0
    9.3580   -2.3970    0.3270 H   0  0  0  0  0
    9.0890   -1.4310   -1.1430 H   0  0  0  0  0
   10.3790   -0.3740    1.4110 H   0  0  0  0  0
   10.1200    0.7840   -1.4010 H   0  0  0  0  0
    9.2200    1.3310    0.0340 H   0  0  0  0  0
   10.9860    1.5410   -0.0420 H   0  0  0  0  0
   11.7500   -2.1120    0.2240 H   0  0  0  0  0
   11.6590   -1.1250   -1.2550 H   0  0  0  0  0
   12.7400    0.7610   -0.0610 H   0  0  0  0  0
   12.8310   -0.2260    1.4170 H   0  0  0  0  0
   14.2380   -1.8830    0.2230 H   0  0  0  0  0
   14.1470   -0.8960   -1.2550 H   0  0  0  0  0
   15.2680    0.0770    1.4110 H   0  0  0  0  0
   15.3110    1.2620   -1.4010 H   0  0  0  0  0
   14.3220    1.8490   -0.0430 H   0  0  0  0  0
   16.0960    1.9650    0.0330 H   0  0  0  0  0
   16.6420   -1.7260    0.3260 H   0  0  0  0  0
   16.7290   -0.7270   -1.1440 H   0  0  0  0  0
   17.8020    1.0920    0.1560 H   0  0  0  0  0
   17.7150    0.0930    1.6260 H   0  0  0  0  0
   19.1290   -1.6300    0.5400 H   0  0  0  0  0
   19.2170   -0.6300   -0.9310 H   0  0  0  0  0
   20.2390    1.2110    0.4390 H   0  0  0  0  0
   19.2950    0.5250    2.6270 H   0  0  0  0  0
   20.2900   -0.9500    2.5950 H   0  0  0  0  0
   21.0690    0.6460    2.7070 H   0  0  0  0  0
   21.6580   -0.3850   -0.8210 H   0  0  0  0  0
   22.4490    0.1150    0.6930 H   0  0  0  0  0
   21.6700   -1.4820    0.5810 H   0  0  0  0  0
  1  2  2  0  0  0
  2  3  1  0  0  0
  2  5  1  0  0  0
  3  4  1  0  0  0
  4 66  1  0  0  0
  4 67  1  0  0  0
  4 68  1  0  0  0
  5  6  1  0  0  0
  5  9  1  0  0  0
  5 69  1  0  0  0
  6  7  2  0  0  0
  6 39  1  0  0  0
  7  8  1  0  0  0
  7 14  1  0  0  0
  8  9  1  0  0  0
  8 11  2  0  0  0
  9 10  2  0  0  0
 11 12  1  0  0  0
 11 13  1  0  0  0
 12 70  1  0  0  0
 12 71  1  0  0  0
 12 72  1  0  0  0
 13 14  1  0  0  0
 13 15  2  0  0  0
 14 73  1  0  0  0
 15 16  1  0  0  0
 15 74  1  0  0  0
 16 17  1  0  0  0
 16 23  2  0  0  0
 17 18  1  0  0  0
 17 20  1  0  0  0
 17 75  1  0  0  0
 18 19  1  0  0  0
 18 76  1  0  0  0
 18 77  1  0  0  0
 19 78  1  0  0  0
 19 79  1  0  0  0
 19 80  1  0  0  0
 20 21  1  0  0  0
 20 22  1  0  0  0
 20 81  1  0  0  0
 21 82  1  0  0  0
 21 83  1  0  0  0
 21 84  1  0  0  0
 22 23  1  0  0  0
 22 24  2  0  0  0
 24 25  1  0  0  0
 24 85  1  0  0  0
 25 26  2  0  0  0
 25 33  1  0  0  0
 26 27  1  0  0  0
 26 30  1  0  0  0
 27 28  1  0  0  0
 27 29  2  0  0  0
 28 86  1  0  0  0
 28 87  1  0  0  0
 28 88  1  0  0  0
 30 31  1  0  0  0
 30 32  2  0  0  0
 31 89  1  0  0  0
 31 90  1  0  0  0
 31 91  1  0  0  0
 32 33  1  0  0  0
 32 34  1  0  0  0
 33 92  1  0  0  0
 34 35  2  0  0  0
 34 93  1  0  0  0
 35 36  1  0  0  0
 35 40  1  0  0  0
 36 37  1  0  0  0
 36 38  1  0  0  0
 36 94  1  0  0  0
 37 95  1  0  0  0
 37 96  1  0  0  0
 37 97  1  0  0  0
 38 39  1  0  0  0
 38 41  1  0  0  0
 38 98  1  0  0  0
 39 40  2  0  0  0
 41 42  1  0  0  0
 41 99  1  0  0  0
 41100  1  0  0  0
 42 43  1  0  0  0
 42101  1  0  0  0
 42102  1  0  0  0
 43 44  2  0  0  0
 43 45  1  0  0  0
 45 46  1  0  0  0
 46 47  1  0  0  0
 46103  1  0  0  0
 46104  1  0  0  0
 47 48  2  0  0  0
 47105  1  0  0  0
 48 49  1  0  0  0
 48 50  1  0  0  0
 49106  1  0  0  0
 49107  1  0  0  0
 49108  1  0  0  0
 50 51  1  0  0  0
 50109  1  0  0  0
 50110  1  0  0  0
 51 52  1  0  0  0
 51111  1  0  0  0
 51112  1  0  0  0
 52 53  1  0  0  0
 52113  1  0  0  0
 52114  1  0  0  0
 53 54  1  0  0  0
 53 55  1  0  0  0
 53115  1  0  0  0
 54116  1  0  0  0
 54117  1  0  0  0
 54118  1  0  0  0
 55 56  1  0  0  0
 55119  1  0  0  0
 55120  1  0  0  0
 56 57  1  0  0  0
 56121  1  0  0  0
 56122  1  0  0  0
 57 58  1  0  0  0
 57123  1  0  0  0
 57124  1  0  0  0
 58 59  1  0  0  0
 58 60  1  0  0  0
 58125  1  0  0  0
 59126  1  0  0  0
 59127  1  0  0  0
 59128  1  0  0  0
 60 61  1  0  0  0
 60129  1  0  0  0
 60130  1  0  0  0
 61 62  1  0  0  0
 61131  1  0  0  0
 61132  1  0  0  0
 62 63  1  0  0  0
 62133  1  0  0  0
 62134  1  0  0  0
 63 64  1  0  0  0
 63 65  1  0  0  0
 63135  1  0  0  0
 64136  1  0  0  0
 64137  1  0  0  0
 64138  1  0  0  0
 65139  1  0  0  0
 65140  1  0  0  0
 65141  1  0  0  0
M  END
$$$$
