BS1
  CCTOOLS-0919241034

 56 60  0  0  1  0  0  0  0  0999 V2000
    4.8260    0.4400   -0.9250 C   0  0  0  0  0
    3.6180    0.3370   -0.0960 N   0  3  0  0  0
    3.9750    0.1200    1.3130 C   0  0  0  0  0
    2.7770    1.5550   -0.2410 C   0  0  0  0  0
    2.0780    1.3730   -1.6080 C   0  0  0  0  0
    2.0510   -0.1520   -1.8390 C   0  0  0  0  0
    2.7380   -0.7560   -0.5870 C   0  0  0  0  0
    1.6960    1.4950    0.8510 C   0  0  0  0  0
    0.7960    0.2830    0.5910 C   0  0  0  0  0
    1.6540   -0.9830    0.4790 C   0  0  0  0  0
   -0.1260    0.1370    1.6730 O   0  0  0  0  0
   -1.4570   -0.1820    1.2620 C   0  0  0  0  0
   -1.3850   -1.5080    0.6130 C   0  0  0  0  0
   -0.9250   -2.5120    1.4910 C   0  0  0  0  0
   -0.8420   -3.8250    1.1000 C   0  0  0  0  0
   -1.2330   -4.1620   -0.1840 C   0  0  0  0  0
   -1.6560   -3.1730   -1.0330 C   0  0  0  0  0
   -1.7010   -1.8150   -0.6400 C   0  0  0  0  0
   -2.0490   -0.9580   -1.8370 C   0  0  0  0  0
   -3.0390    0.1310   -1.5640 C   0  0  0  0  0
   -2.5880    1.1640   -0.5520 C   0  0  0  0  0
   -2.9080    2.4590   -1.0200 C   0  0  0  0  0
   -2.6930    3.5790   -0.2600 C   0  0  0  0  0
   -2.1580    3.4380    1.0080 C   0  0  0  0  0
   -1.8140    2.1840    1.4420 C   0  0  0  0  0
   -2.0000    1.0410    0.6350 C   0  0  0  0  0
    5.4090   -0.4760   -0.8340 H   0  0  0  0  0
    4.5400    0.5870   -1.9670 H   0  0  0  0  0
    5.4250    1.2870   -0.5900 H   0  0  0  0  0
    4.5870    0.9500    1.6640 H   0  0  0  0  0
    3.0670    0.0580    1.9120 H   0  0  0  0  0
    4.5360   -0.8100    1.4060 H   0  0  0  0  0
    3.3660    2.4700   -0.1980 H   0  0  0  0  0
    3.2960   -1.6640   -0.8170 H   0  0  0  0  0
    1.0640    1.7690   -1.5710 H   0  0  0  0  0
    2.6500    1.8650   -2.3950 H   0  0  0  0  0
    2.1700    1.3960    1.8280 H   0  0  0  0  0
    1.0990    2.4060    0.8230 H   0  0  0  0  0
    1.0230   -0.5060   -1.9150 H   0  0  0  0  0
    2.6100   -0.4100   -2.7380 H   0  0  0  0  0
    1.0270   -1.8260    0.1890 H   0  0  0  0  0
    2.1250   -1.1910    1.4400 H   0  0  0  0  0
    0.2450    0.4330   -0.3370 H   0  0  0  0  0
   -2.0190   -0.3240    2.1860 H   0  0  0  0  0
   -0.6300   -2.2410    2.4940 H   0  0  0  0  0
   -0.4810   -4.5810    1.7820 H   0  0  0  0  0
   -1.2040   -5.1900   -0.5120 H   0  0  0  0  0
   -1.9650   -3.4390   -2.0330 H   0  0  0  0  0
   -1.1330   -0.5040   -2.2140 H   0  0  0  0  0
   -2.4540   -1.6040   -2.6160 H   0  0  0  0  0
   -3.2560    0.6410   -2.5030 H   0  0  0  0  0
   -3.9610   -0.3240   -1.2040 H   0  0  0  0  0
   -3.3340    2.5690   -2.0060 H   0  0  0  0  0
   -2.9380    4.5580   -0.6460 H   0  0  0  0  0
   -2.0140    4.2990    1.6430 H   0  0  0  0  0
   -1.3900    2.0670    2.4290 H   0  0  0  0  0
  1  2  1  0  0  0
  1 27  1  0  0  0
  1 28  1  0  0  0
  1 29  1  0  0  0
  2  3  1  0  0  0
  2  4  1  0  0  0
  2  7  1  0  0  0
  3 30  1  0  0  0
  3 31  1  0  0  0
  3 32  1  0  0  0
  4  5  1  0  0  0
  4  8  1  0  0  0
  4 33  1  0  0  0
  5  6  1  0  0  0
  5 35  1  0  0  0
  5 36  1  0  0  0
  6  7  1  0  0  0
  6 39  1  0  0  0
  6 40  1  0  0  0
  7 10  1  0  0  0
  7 34  1  0  0  0
  8  9  1  0  0  0
  8 37  1  0  0  0
  8 38  1  0  0  0
  9 10  1  0  0  0
  9 11  1  0  0  0
  9 43  1  0  0  0
 10 41  1  0  0  0
 10 42  1  0  0  0
 11 12  1  0  0  0
 12 13  1  0  0  0
 12 26  1  0  0  0
 12 44  1  0  0  0
 13 14  1  0  0  0
 13 18  2  0  0  0
 14 15  2  0  0  0
 14 45  1  0  0  0
 15 16  1  0  0  0
 15 46  1  0  0  0
 16 17  2  0  0  0
 16 47  1  0  0  0
 17 18  1  0  0  0
 17 48  1  0  0  0
 18 19  1  0  0  0
 19 20  1  0  0  0
 19 49  1  0  0  0
 19 50  1  0  0  0
 20 21  1  0  0  0
 20 51  1  0  0  0
 20 52  1  0  0  0
 21 22  2  0  0  0
 21 26  1  0  0  0
 22 23  1  0  0  0
 22 53  1  0  0  0
 23 24  2  0  0  0
 23 54  1  0  0  0
 24 25  1  0  0  0
 24 55  1  0  0  0
 25 26  2  0  0  0
 25 56  1  0  0  0
M  CHG  1   2   1
M  END
$$$$
