BS2
  CCTOOLS-0919241034

 63 68  0  0  1  0  0  0  0  0999 V2000
   -2.2730    1.5630   -0.4960 C   0  0  0  0  0
   -1.4990    2.4000   -1.3280 C   0  0  0  0  0
   -1.4310    3.7550   -1.1200 C   0  0  0  0  0
   -2.1420    4.3010   -0.0670 C   0  0  0  0  0
   -2.8690    3.4740    0.7470 C   0  0  0  0  0
   -2.9160    2.0730    0.5460 C   0  0  0  0  0
   -3.6960    1.4340    1.6740 C   0  0  0  0  0
   -4.6690    0.3810    1.2430 C   0  0  0  0  0
   -4.0460   -0.8140    0.5550 C   0  0  0  0  0
   -4.6030   -2.0030    1.0820 C   0  0  0  0  0
   -4.2660   -3.2400    0.5990 C   0  0  0  0  0
   -3.3640   -3.3320   -0.4450 C   0  0  0  0  0
   -2.8090   -2.1780   -0.9390 C   0  0  0  0  0
   -3.1320   -0.9130   -0.4040 C   0  0  0  0  0
   -2.2930    0.1630   -0.9770 C   0  0  0  0  0
   -0.9440   -0.3030   -0.9130 O   0  0  0  0  0
   -0.4170   -0.3800    0.4130 C   0  0  0  0  0
    0.7280    0.6260    0.5650 C   0  0  0  0  0
    0.1020   -1.7960    0.6740 C   0  0  0  0  0
    1.3080   -2.0610   -0.2420 C   0  0  0  0  0
    0.9230   -1.6170   -1.6720 C   0  0  0  0  0
    1.3080   -0.1240   -1.7390 C   0  0  0  0  0
    1.8910    0.1970   -0.3430 C   0  0  0  0  0
    2.3820   -1.1140    0.1590 N   0  3  0  0  0
    3.6530   -1.4710   -0.4850 C   0  0  0  0  0
    4.7480   -0.5730    0.0320 C   0  0  0  0  0
    5.4750   -0.9420    1.1480 C   0  0  0  0  0
    6.4790   -0.1180    1.6220 C   0  0  0  0  0
    6.7550    1.0740    0.9800 C   0  0  0  0  0
    6.0290    1.4420   -0.1370 C   0  0  0  0  0
    5.0280    0.6170   -0.6140 C   0  0  0  0  0
   -0.9470    1.9640   -2.1470 H   0  0  0  0  0
   -2.5350    0.2070   -2.0390 H   0  0  0  0  0
   -0.8330    4.3820   -1.7660 H   0  0  0  0  0
   -2.1240    5.3660    0.1110 H   0  0  0  0  0
   -3.4240    3.9040    1.5690 H   0  0  0  0  0
   -2.9890    0.9850    2.3710 H   0  0  0  0  0
   -4.2440    2.2150    2.2010 H   0  0  0  0  0
   -5.2080    0.0300    2.1230 H   0  0  0  0  0
   -5.3890    0.8350    0.5620 H   0  0  0  0  0
   -5.3160   -1.9340    1.8900 H   0  0  0  0  0
   -4.6990   -4.1320    1.0280 H   0  0  0  0  0
   -3.1010   -4.2920   -0.8630 H   0  0  0  0  0
   -2.1080   -2.2400   -1.7590 H   0  0  0  0  0
   -1.2040   -0.1450    1.1300 H   0  0  0  0  0
    0.3840    1.6180    0.2730 H   0  0  0  0  0
    1.0620    0.6450    1.6020 H   0  0  0  0  0
    0.4080   -1.8870    1.7160 H   0  0  0  0  0
   -0.6860   -2.5190    0.4580 H   0  0  0  0  0
    2.6770    0.9520   -0.3890 H   0  0  0  0  0
    1.6290   -3.1020   -0.2070 H   0  0  0  0  0
    1.4850   -2.1870   -2.4110 H   0  0  0  0  0
   -0.1490   -1.7390   -1.8320 H   0  0  0  0  0
    2.0600    0.0390   -2.5110 H   0  0  0  0  0
    0.4260    0.4870   -1.9310 H   0  0  0  0  0
    3.8970   -2.5090   -0.2570 H   0  0  0  0  0
    3.5610   -1.3480   -1.5640 H   0  0  0  0  0
    5.2590   -1.8740    1.6500 H   0  0  0  0  0
    4.4620    0.9030   -1.4880 H   0  0  0  0  0
    7.0470   -0.4060    2.4940 H   0  0  0  0  0
    7.5390    1.7180    1.3500 H   0  0  0  0  0
    6.2450    2.3740   -0.6390 H   0  0  0  0  0
    2.4830   -1.0950    1.1620 H   0  0  0  0  0
  1  2  1  0  0  0
  1  6  2  0  0  0
  1 15  1  0  0  0
  2  3  2  0  0  0
  2 32  1  0  0  0
  3  4  1  0  0  0
  3 34  1  0  0  0
  4  5  2  0  0  0
  4 35  1  0  0  0
  5  6  1  0  0  0
  5 36  1  0  0  0
  6  7  1  0  0  0
  7  8  1  0  0  0
  7 37  1  0  0  0
  7 38  1  0  0  0
  8  9  1  0  0  0
  8 39  1  0  0  0
  8 40  1  0  0  0
  9 10  1  0  0  0
  9 14  2  0  0  0
 10 11  2  0  0  0
 10 41  1  0  0  0
 11 12  1  0  0  0
 11 42  1  0  0  0
 12 13  2  0  0  0
 12 43  1  0  0  0
 13 14  1  0  0  0
 13 44  1  0  0  0
 14 15  1  0  0  0
 15 16  1  0  0  0
 15 33  1  0  0  0
 16 17  1  0  0  0
 17 18  1  0  0  0
 17 19  1  0  0  0
 17 45  1  0  0  0
 18 23  1  0  0  0
 18 46  1  0  0  0
 18 47  1  0  0  0
 19 20  1  0  0  0
 19 48  1  0  0  0
 19 49  1  0  0  0
 20 21  1  0  0  0
 20 24  1  0  0  0
 20 51  1  0  0  0
 21 22  1  0  0  0
 21 52  1  0  0  0
 21 53  1  0  0  0
 22 23  1  0  0  0
 22 54  1  0  0  0
 22 55  1  0  0  0
 23 24  1  0  0  0
 23 50  1  0  0  0
 24 25  1  0  0  0
 24 63  1  0  0  0
 25 26  1  0  0  0
 25 56  1  0  0  0
 25 57  1  0  0  0
 26 27  1  0  0  0
 26 31  2  0  0  0
 27 28  2  0  0  0
 27 58  1  0  0  0
 28 29  1  0  0  0
 28 60  1  0  0  0
 29 30  2  0  0  0
 29 61  1  0  0  0
 30 31  1  0  0  0
 30 62  1  0  0  0
 31 59  1  0  0  0
M  CHG  1  24   1
M  END
$$$$
