BTD
  CCTOOLS-0919241035

 35 37  0  0  1  0  0  0  0  0999 V2000
    0.7050   -2.5720    6.3240 O   0  0  0  0  0
    0.4560   -1.1660    6.3740 C   0  0  0  0  0
    1.1580   -0.4810    5.2000 C   0  0  0  0  0
    0.6110   -0.9380    3.9440 O   0  0  0  0  0
    0.9230    0.0630    2.9610 C   0  0  0  0  0
   -0.1580    0.1490    1.9770 N   0  0  0  0  0
    0.1200   -0.0660    0.6560 C   0  0  0  0  0
   -1.4030    0.4330    2.3910 C   0  0  0  0  0
   -1.6040    0.6180    3.5760 O   0  0  0  0  0
   -2.4330    0.5290    1.5320 N   0  0  0  0  0
   -2.2390    0.3290    0.2110 C   0  0  0  0  0
   -3.1680    0.4100   -0.5710 O   0  0  0  0  0
   -0.8850    0.0120   -0.2630 C   0  0  0  0  0
   -0.6180   -0.2150   -1.6990 C   0  0  0  0  0
   -1.1440   -1.1640   -2.5340 C   0  0  0  0  0
   -0.7440   -1.1800   -3.8540 C   0  0  0  0  0
    0.1620   -0.2640   -4.2810 C   0  0  0  0  0
    0.4770    0.6710   -2.7940 S   0  0  0  0  0
    0.9020   -0.0390   -6.0060 BR  0  0  0  0  0
    1.0660    1.4050    3.7050 C   0  0  0  0  0
    0.8600    1.0390    5.1970 C   0  0  0  0  0
    1.7810    1.7470    6.0280 O   0  0  0  0  0
    0.2460   -2.9640    7.0790 H   0  0  0  0  0
   -0.6160   -0.9850    6.3110 H   0  0  0  0  0
    0.8380   -0.7620    7.3110 H   0  0  0  0  0
    2.2320   -0.6610    5.2380 H   0  0  0  0  0
    1.8590   -0.1850    2.4620 H   0  0  0  0  0
    1.1270   -0.2970    0.3420 H   0  0  0  0  0
   -3.3200    0.7400    1.8630 H   0  0  0  0  0
   -1.8640   -1.8810   -2.1680 H   0  0  0  0  0
   -1.1440   -1.9140   -4.5380 H   0  0  0  0  0
    2.0620    1.8220    3.5520 H   0  0  0  0  0
    0.3020    2.1090    3.3740 H   0  0  0  0  0
   -0.1670    1.2320    5.5060 H   0  0  0  0  0
    1.5990    2.6890    5.9090 H   0  0  0  0  0
  1  2  1  0  0  0
  1 23  1  0  0  0
  2  3  1  0  0  0
  2 24  1  0  0  0
  2 25  1  0  0  0
  3  4  1  0  0  0
  3 21  1  0  0  0
  3 26  1  0  0  0
  4  5  1  0  0  0
  5  6  1  0  0  0
  5 20  1  0  0  0
  5 27  1  0  0  0
  6  7  1  0  0  0
  6  8  1  0  0  0
  7 13  2  0  0  0
  7 28  1  0  0  0
  8  9  2  0  0  0
  8 10  1  0  0  0
 10 11  1  0  0  0
 10 29  1  0  0  0
 11 12  2  0  0  0
 11 13  1  0  0  0
 13 14  1  0  0  0
 14 15  2  0  0  0
 14 18  1  0  0  0
 15 16  1  0  0  0
 15 30  1  0  0  0
 16 17  2  0  0  0
 16 31  1  0  0  0
 17 18  1  0  0  0
 17 19  1  0  0  0
 20 21  1  0  0  0
 20 32  1  0  0  0
 20 33  1  0  0  0
 21 22  1  0  0  0
 21 34  1  0  0  0
 22 35  1  0  0  0
M  END
$$$$
