BTN
  CCTOOLS-1004241119

 32 33  0  0  1  0  0  0  0  0999 V2000
    5.0890   -0.2800    0.1730 C   0  0  0  0  0
    4.9560   -1.4730    0.0300 O   0  0  0  0  0
    6.2990    0.2330    0.4440 O   0  0  0  0  0
    3.8960    0.6310    0.0390 C   0  0  0  0  0
    2.6510   -0.2000   -0.2760 C   0  0  0  0  0
    1.4400    0.7250   -0.4120 C   0  0  0  0  0
    0.1960   -0.1060   -0.7270 C   0  0  0  0  0
   -1.0150    0.8190   -0.8630 C   0  0  0  0  0
   -1.4190    1.6040    0.7510 S   0  0  0  0  0
   -3.2050    1.8270    0.3710 C   0  0  0  0  0
   -3.5300    0.5810   -0.4760 C   0  0  0  0  0
   -3.9700   -0.5070    0.4120 N   0  0  0  0  0
   -3.1410   -1.5490    0.2710 C   0  0  0  0  0
   -3.2710   -2.5890    0.8880 O   0  0  0  0  0
   -2.1540   -1.3430   -0.6120 N   0  0  0  0  0
   -2.2890    0.0100   -1.1750 C   0  0  0  0  0
    7.0340   -0.3910    0.5170 H   0  0  0  0  0
    3.7450    1.1710    0.9740 H   0  0  0  0  0
    4.0710    1.3430   -0.7670 H   0  0  0  0  0
    2.8020   -0.7400   -1.2110 H   0  0  0  0  0
    2.4760   -0.9120    0.5300 H   0  0  0  0  0
    1.2890    1.2650    0.5230 H   0  0  0  0  0
    1.6160    1.4370   -1.2180 H   0  0  0  0  0
    0.3460   -0.6460   -1.6620 H   0  0  0  0  0
    0.0200   -0.8180    0.0790 H   0  0  0  0  0
   -0.8380    1.5760   -1.6270 H   0  0  0  0  0
   -3.7970    1.8370    1.2860 H   0  0  0  0  0
   -3.3670    2.7380   -0.2050 H   0  0  0  0  0
   -4.3070    0.8120   -1.2050 H   0  0  0  0  0
   -4.7380   -0.4740    1.0040 H   0  0  0  0  0
   -1.4620   -1.9820   -0.8430 H   0  0  0  0  0
   -2.4510   -0.0380   -2.2520 H   0  0  0  0  0
  1  2  2  0  0  0
  1  3  1  0  0  0
  1  4  1  0  0  0
  3 17  1  0  0  0
  4  5  1  0  0  0
  4 18  1  0  0  0
  4 19  1  0  0  0
  5  6  1  0  0  0
  5 20  1  0  0  0
  5 21  1  0  0  0
  6  7  1  0  0  0
  6 22  1  0  0  0
  6 23  1  0  0  0
  7  8  1  0  0  0
  7 24  1  0  0  0
  7 25  1  0  0  0
  8  9  1  0  0  0
  8 16  1  0  0  0
  8 26  1  0  0  0
  9 10  1  0  0  0
 10 11  1  0  0  0
 10 27  1  0  0  0
 10 28  1  0  0  0
 11 12  1  0  0  0
 11 16  1  0  0  0
 11 29  1  0  0  0
 12 13  1  0  0  0
 12 30  1  0  0  0
 13 14  2  0  0  0
 13 15  1  0  0  0
 15 16  1  0  0  0
 15 31  1  0  0  0
 16 32  1  0  0  0
M  END
$$$$
