BU3
  CCTOOLS-0919241035

 16 15  0  0  1  0  0  0  0  0999 V2000
    1.1950   -0.7290    0.7520 O   0  0  0  0  0
    0.3740    0.4370    0.6660 C   0  0  0  0  0
   -0.6320    0.4370    1.8180 C   0  0  0  0  0
   -0.3740    0.4370   -0.6660 C   0  0  0  0  0
   -1.1950   -0.7290   -0.7520 O   0  0  0  0  0
    0.6320    0.4370   -1.8180 C   0  0  0  0  0
    0.6040   -1.4910    0.6900 H   0  0  0  0  0
    1.0000    1.3270    0.7310 H   0  0  0  0  0
   -0.0990    0.4370    2.7680 H   0  0  0  0  0
   -1.2580    1.3270    1.7530 H   0  0  0  0  0
   -1.2580   -0.4520    1.7530 H   0  0  0  0  0
   -1.0000    1.3270   -0.7310 H   0  0  0  0  0
   -0.6040   -1.4910   -0.6900 H   0  0  0  0  0
    0.0990    0.4370   -2.7680 H   0  0  0  0  0
    1.2580    1.3270   -1.7530 H   0  0  0  0  0
    1.2580   -0.4520   -1.7530 H   0  0  0  0  0
  1  2  1  0  0  0
  1  7  1  0  0  0
  2  3  1  0  0  0
  2  4  1  0  0  0
  2  8  1  0  0  0
  3  9  1  0  0  0
  3 10  1  0  0  0
  3 11  1  0  0  0
  4  5  1  0  0  0
  4  6  1  0  0  0
  4 12  1  0  0  0
  5 13  1  0  0  0
  6 14  1  0  0  0
  6 15  1  0  0  0
  6 16  1  0  0  0
M  END
$$$$
