BV1
  CCTOOLS-0919241035

152158  0  0  0  0  0  0  0  0999 V2000
   12.4000    6.6370   -4.1960 N   0  0  0  0  0
   13.1110    6.8480   -5.3830 C   0  0  0  0  0
   12.6820    7.5730   -6.2980 O   0  0  0  0  0
   14.3820    6.1560   -5.5230 C   0  0  0  0  0
   15.1150    5.8070   -4.3890 C   0  0  0  0  0
   14.8700    5.8420   -6.7920 C   0  0  0  0  0
   16.0900    5.1800   -6.9260 C   0  0  0  0  0
   16.5870    4.8610   -8.2180 N   0  3  0  0  0
   15.9130    5.1840   -9.2250 O   0  5  0  0  0
   17.6870    4.2660   -8.3160 O   0  0  0  0  0
   16.8230    4.8320   -5.7920 C   0  0  0  0  0
   16.3320    5.1470   -4.5280 C   0  0  0  0  0
   17.0500    4.8050   -3.4160 O   0  0  0  0  0
   17.4580    5.8750   -2.5640 C   0  0  0  0  0
   16.4600    6.1880   -1.5880 O   0  0  0  0  0
   16.1950    5.1150   -0.6710 C   0  0  0  0  0
   15.0730    5.5780    0.2530 C   0  0  0  0  0
   13.9490    5.9210   -0.5380 O   0  0  0  0  0
   17.4650    4.7320    0.0980 C   0  0  0  0  0
   17.8580    5.8340    0.9200 O   0  0  0  0  0
   18.5950    4.3930   -0.8780 C   0  0  0  0  0
   19.8110    4.1890   -0.1650 O   0  0  0  0  0
   18.7840    5.5310   -1.8820 C   0  0  0  0  0
   19.7400    5.1630   -2.8710 O   0  0  0  0  0
   -4.7920    4.4210    6.7240 O   0  0  0  0  0
   -5.6650    3.6030    5.9650 C   0  0  0  0  0
   -6.0110    4.3300    4.6710 C   0  0  0  0  0
   -6.6130    5.5820    5.0340 O   0  0  0  0  0
   -6.8910    6.4140    3.9040 C   0  0  0  0  0
   -7.4390    7.6640    4.3210 O   0  0  0  0  0
   -6.6820    8.4230    5.1600 C   0  0  0  0  0
   -5.4200    8.8590    4.7570 C   0  0  0  0  0
   -4.6720    9.6270    5.6260 C   0  0  0  0  0
   -5.1300    9.9780    6.8790 C   0  0  0  0  0
   -6.3920    9.5410    7.2820 C   0  0  0  0  0
   -7.1680    8.7640    6.4220 C   0  0  0  0  0
   -6.8870    9.8880    8.5670 N   0  3  0  0  0
   -6.1730   10.5890    9.3240 O   0  5  0  0  0
   -8.0250    9.4860    8.9090 O   0  0  0  0  0
   -3.3290   10.0930    5.1960 C   0  0  0  0  0
   -2.8620   11.1160    5.6910 O   0  0  0  0  0
   -2.6780    9.3010    4.2570 N   0  0  0  0  0
   -1.3640    9.6070    3.7610 C   0  0  0  0  0
   -0.2580    8.9680    4.5980 C   0  0  0  0  0
   -0.3440    7.4450    4.6730 C   0  0  0  0  0
   -0.2850    6.8140    3.3560 N   0  0  0  0  0
    1.0060    7.0780    2.7090 C   0  0  0  0  0
    1.0700    6.4150    1.3290 C   0  0  0  0  0
    0.8330    4.9700    1.4310 N   0  0  0  0  0
   -0.4570    4.7060    2.0790 C   0  0  0  0  0
   -0.5200    5.3690    3.4600 C   0  0  0  0  0
    0.8910    4.3400    0.1130 C   0  0  0  0  0
    2.2700    4.4560   -0.5330 C   0  0  0  0  0
    3.3930    3.8340    0.2950 C   0  0  0  0  0
    3.1780    2.4050    0.5520 N   0  0  0  0  0
    4.0240    1.6770    1.2290 C   0  0  0  0  0
    5.1930    1.7740    1.8700 C   0  0  0  0  0
    6.1180    2.6920    2.1530 N   0  0  0  0  0
    6.0140    4.0620    1.7300 C   0  0  0  0  0
    7.1930    4.9110    2.1980 C   0  0  0  0  0
    8.5480    4.4110    1.7030 C   0  0  0  0  0
    8.6280    4.3590    0.2440 N   0  0  0  0  0
    8.4980    5.7020   -0.3340 C   0  0  0  0  0
    8.5850    5.6500   -1.8630 C   0  0  0  0  0
    9.8420    5.0260   -2.2930 N   0  0  0  0  0
    9.9700    3.6820   -1.7170 C   0  0  0  0  0
    9.8840    3.7340   -0.1870 C   0  0  0  0  0
    9.9240    4.9740   -3.7520 C   0  0  0  0  0
    9.9500    6.3630   -4.3870 C   0  0  0  0  0
   11.1140    7.2340   -3.9180 C   0  0  0  0  0
    5.2140    0.3810    2.2510 C   0  0  0  0  0
    5.8710   -0.4350    2.8440 O   0  0  0  0  0
    3.9210    0.2550    1.5480 C   0  0  0  0  0
    3.2000   -0.6950    1.3890 O   0  0  0  0  0
   -7.8820    5.7370    2.9530 C   0  0  0  0  0
   -9.1480    5.6020    3.6020 O   0  0  0  0  0
   -7.3420    4.3650    2.5430 C   0  0  0  0  0
   -8.2900    3.6630    1.7490 O   0  0  0  0  0
   -6.9490    3.5230    3.7610 C   0  0  0  0  0
   -8.1280    3.1440    4.4720 O   0  0  0  0  0
   12.7650    5.9850   -3.5080 H   0  0  0  0  0
   14.7390    6.0500   -3.3980 H   0  0  0  0  0
   14.2970    6.1150   -7.6760 H   0  0  0  0  0
   17.7760    4.3150   -5.8890 H   0  0  0  0  0
   17.5880    6.7510   -3.2070 H   0  0  0  0  0
   15.8260    4.2520   -1.2380 H   0  0  0  0  0
   15.3940    6.4530    0.8200 H   0  0  0  0  0
   14.8000    4.7760    0.9390 H   0  0  0  0  0
   14.2550    5.9770   -1.4590 H   0  0  0  0  0
   17.2790    3.8890    0.7720 H   0  0  0  0  0
   18.3280    6.4510    0.3390 H   0  0  0  0  0
   18.3750    3.4570   -1.4040 H   0  0  0  0  0
   20.5300    4.4400   -0.7660 H   0  0  0  0  0
   19.1780    6.4130   -1.3640 H   0  0  0  0  0
   19.4980    5.6390   -3.6810 H   0  0  0  0  0
   -4.5430    3.9140    7.5150 H   0  0  0  0  0
   -5.1680    2.6580    5.7410 H   0  0  0  0  0
   -6.5710    3.4130    6.5410 H   0  0  0  0  0
   -5.0760    4.5410    4.1370 H   0  0  0  0  0
   -5.9520    6.6240    3.3770 H   0  0  0  0  0
   -5.0450    8.5910    3.7720 H   0  0  0  0  0
   -4.5230   10.5840    7.5480 H   0  0  0  0  0
   -8.1530    8.4200    6.7300 H   0  0  0  0  0
   -3.1080    8.4340    3.9420 H   0  0  0  0  0
   -1.3170    9.2320    2.7340 H   0  0  0  0  0
   -1.2640   10.6960    3.7280 H   0  0  0  0  0
    0.7180    9.2430    4.1800 H   0  0  0  0  0
   -0.3020    9.3840    5.6120 H   0  0  0  0  0
    0.4650    7.0270    5.2810 H   0  0  0  0  0
   -1.2950    7.1470    5.1260 H   0  0  0  0  0
    1.8350    6.7170    3.3330 H   0  0  0  0  0
    1.1400    8.1590    2.5830 H   0  0  0  0  0
    0.3370    6.8830    0.6580 H   0  0  0  0  0
    2.0640    6.5950    0.9010 H   0  0  0  0  0
   -0.5900    3.6250    2.2050 H   0  0  0  0  0
   -1.2870    5.0670    1.4560 H   0  0  0  0  0
   -1.5140    5.1880    3.8880 H   0  0  0  0  0
    0.2150    4.9010    4.1300 H   0  0  0  0  0
    0.1160    4.7970   -0.5100 H   0  0  0  0  0
    0.6330    3.2850    0.2540 H   0  0  0  0  0
    2.4890    5.5180   -0.7010 H   0  0  0  0  0
    2.2510    3.9720   -1.5170 H   0  0  0  0  0
    3.4530    4.3270    1.2700 H   0  0  0  0  0
    4.3630    3.9430   -0.2000 H   0  0  0  0  0
    2.3290    1.9810    0.1790 H   0  0  0  0  0
    6.9280    2.3860    2.6980 H   0  0  0  0  0
    5.9720    4.0540    0.6360 H   0  0  0  0  0
    5.0630    4.4560    2.1020 H   0  0  0  0  0
    7.0550    5.9440    1.8560 H   0  0  0  0  0
    7.1940    4.9330    3.2950 H   0  0  0  0  0
    9.3650    5.0460    2.0600 H   0  0  0  0  0
    8.7260    3.3950    2.0670 H   0  0  0  0  0
    9.2760    6.3720    0.0600 H   0  0  0  0  0
    7.5280    6.1300   -0.0540 H   0  0  0  0  0
    7.7220    5.1030   -2.2660 H   0  0  0  0  0
    8.5330    6.6750   -2.2500 H   0  0  0  0  0
   10.9410    3.2530   -1.9960 H   0  0  0  0  0
    9.1920    3.0130   -2.1100 H   0  0  0  0  0
    9.9360    2.7100    0.2000 H   0  0  0  0  0
   10.7490    4.2800    0.2150 H   0  0  0  0  0
    9.0760    4.3840   -4.1140 H   0  0  0  0  0
   10.8430    4.4340   -4.0000 H   0  0  0  0  0
    9.0040    6.8700   -4.1590 H   0  0  0  0  0
   10.0060    6.2620   -5.4770 H   0  0  0  0  0
   11.0580    7.3780   -2.8340 H   0  0  0  0  0
   11.0930    8.2200   -4.3910 H   0  0  0  0  0
   -8.0630    6.3620    2.0720 H   0  0  0  0  0
   -9.0400    4.9050    4.2660 H   0  0  0  0  0
   -6.4470    4.5110    1.9240 H   0  0  0  0  0
   -8.6670    2.9690    2.3130 H   0  0  0  0  0
   -6.4700    2.5950    3.4260 H   0  0  0  0  0
   -7.8780    2.4010    5.0410 H   0  0  0  0  0
  1  2  1  0  0  0
  1 70  1  0  0  0
  1 81  1  0  0  0
  2  3  2  0  0  0
  2  4  1  0  0  0
  4  5  2  0  0  0
  4  6  1  0  0  0
  5 12  1  0  0  0
  5 82  1  0  0  0
  6  7  2  0  0  0
  6 83  1  0  0  0
  7  8  1  0  0  0
  7 11  1  0  0  0
  8  9  1  0  0  0
  8 10  2  0  0  0
 11 12  2  0  0  0
 11 84  1  0  0  0
 12 13  1  0  0  0
 13 14  1  0  0  0
 14 15  1  0  0  0
 14 23  1  0  0  0
 14 85  1  0  0  0
 15 16  1  0  0  0
 16 17  1  0  0  0
 16 19  1  0  0  0
 16 86  1  0  0  0
 17 18  1  0  0  0
 17 87  1  0  0  0
 17 88  1  0  0  0
 18 89  1  0  0  0
 19 20  1  0  0  0
 19 21  1  0  0  0
 19 90  1  0  0  0
 20 91  1  0  0  0
 21 22  1  0  0  0
 21 23  1  0  0  0
 21 92  1  0  0  0
 22 93  1  0  0  0
 23 24  1  0  0  0
 23 94  1  0  0  0
 24 95  1  0  0  0
 25 26  1  0  0  0
 25 96  1  0  0  0
 26 27  1  0  0  0
 26 97  1  0  0  0
 26 98  1  0  0  0
 27 28  1  0  0  0
 27 79  1  0  0  0
 27 99  1  0  0  0
 28 29  1  0  0  0
 29 30  1  0  0  0
 29 75  1  0  0  0
 29100  1  0  0  0
 30 31  1  0  0  0
 31 32  2  0  0  0
 31 36  1  0  0  0
 32 33  1  0  0  0
 32101  1  0  0  0
 33 34  2  0  0  0
 33 40  1  0  0  0
 34 35  1  0  0  0
 34102  1  0  0  0
 35 36  2  0  0  0
 35 37  1  0  0  0
 36103  1  0  0  0
 37 38  1  0  0  0
 37 39  2  0  0  0
 40 41  2  0  0  0
 40 42  1  0  0  0
 42 43  1  0  0  0
 42104  1  0  0  0
 43 44  1  0  0  0
 43105  1  0  0  0
 43106  1  0  0  0
 44 45  1  0  0  0
 44107  1  0  0  0
 44108  1  0  0  0
 45 46  1  0  0  0
 45109  1  0  0  0
 45110  1  0  0  0
 46 47  1  0  0  0
 46 51  1  0  0  0
 47 48  1  0  0  0
 47111  1  0  0  0
 47112  1  0  0  0
 48 49  1  0  0  0
 48113  1  0  0  0
 48114  1  0  0  0
 49 50  1  0  0  0
 49 52  1  0  0  0
 50 51  1  0  0  0
 50115  1  0  0  0
 50116  1  0  0  0
 51117  1  0  0  0
 51118  1  0  0  0
 52 53  1  0  0  0
 52119  1  0  0  0
 52120  1  0  0  0
 53 54  1  0  0  0
 53121  1  0  0  0
 53122  1  0  0  0
 54 55  1  0  0  0
 54123  1  0  0  0
 54124  1  0  0  0
 55 56  1  0  0  0
 55125  1  0  0  0
 56 57  2  0  0  0
 56 73  1  0  0  0
 57 58  1  0  0  0
 57 71  1  0  0  0
 58 59  1  0  0  0
 58126  1  0  0  0
 59 60  1  0  0  0
 59127  1  0  0  0
 59128  1  0  0  0
 60 61  1  0  0  0
 60129  1  0  0  0
 60130  1  0  0  0
 61 62  1  0  0  0
 61131  1  0  0  0
 61132  1  0  0  0
 62 63  1  0  0  0
 62 67  1  0  0  0
 63 64  1  0  0  0
 63133  1  0  0  0
 63134  1  0  0  0
 64 65  1  0  0  0
 64135  1  0  0  0
 64136  1  0  0  0
 65 66  1  0  0  0
 65 68  1  0  0  0
 66 67  1  0  0  0
 66137  1  0  0  0
 66138  1  0  0  0
 67139  1  0  0  0
 67140  1  0  0  0
 68 69  1  0  0  0
 68141  1  0  0  0
 68142  1  0  0  0
 69 70  1  0  0  0
 69143  1  0  0  0
 69144  1  0  0  0
 70145  1  0  0  0
 70146  1  0  0  0
 71 72  2  0  0  0
 71 73  1  0  0  0
 73 74  2  0  0  0
 75 76  1  0  0  0
 75 77  1  0  0  0
 75147  1  0  0  0
 76148  1  0  0  0
 77 78  1  0  0  0
 77 79  1  0  0  0
 77149  1  0  0  0
 78150  1  0  0  0
 79 80  1  0  0  0
 79151  1  0  0  0
 80152  1  0  0  0
M  CHG  1   8   1
M  CHG  1   9  -1
M  CHG  1  37   1
M  CHG  1  38  -1
M  END
$$$$
