BV2
  CCTOOLS-0919241035

163168  0  0  0  0  0  0  0  0999 V2000
   11.4160  -13.4190   -7.8280 O   0  0  0  0  0
   10.1960  -13.3650   -8.5590 C   0  0  0  0  0
    9.5030  -14.7270   -8.5370 C   0  0  0  0  0
    9.1240  -15.0410   -7.1990 O   0  0  0  0  0
    8.2660  -14.7060   -9.4400 C   0  0  0  0  0
    7.2840  -13.8280   -8.8850 O   0  0  0  0  0
    8.6410  -14.2090  -10.8420 C   0  0  0  0  0
    7.4240  -14.0540  -11.7490 C   0  0  0  0  0
    7.8590  -13.5830  -13.0120 O   0  0  0  0  0
    9.2840  -12.9260  -10.7710 O   0  0  0  0  0
   10.4870  -12.9300   -9.9970 C   0  0  0  0  0
   11.4860  -13.7700  -10.5720 O   0  0  0  0  0
   11.8640  -13.4820  -11.8550 C   0  0  0  0  0
   11.2750  -12.4150  -12.5260 C   0  0  0  0  0
   12.8330  -14.2600  -12.4810 C   0  0  0  0  0
   13.2180  -13.9680  -13.7890 C   0  0  0  0  0
   14.2070  -14.7580  -14.4320 N   0  3  0  0  0
   14.5390  -14.4780  -15.6090 O   0  5  0  0  0
   14.7230  -15.7150  -13.8050 O   0  0  0  0  0
   12.6300  -12.8990  -14.4660 C   0  0  0  0  0
   11.6590  -12.1220  -13.8340 C   0  0  0  0  0
   11.0480  -11.0060  -14.5390 C   0  0  0  0  0
   11.6570  -10.4300  -15.4570 O   0  0  0  0  0
    9.7540  -10.6410  -14.1490 N   0  0  0  0  0
   13.7260   -6.5120  -22.5930 O   0  0  0  0  0
   12.9570   -7.7000  -22.5310 C   0  0  0  0  0
   11.4970   -7.3480  -22.7850 C   0  0  0  0  0
   11.1080   -6.3920  -21.7880 O   0  0  0  0  0
    9.7800   -5.8950  -21.9790 C   0  0  0  0  0
    9.4620   -4.9140  -20.9940 O   0  0  0  0  0
   10.2610   -3.8130  -20.9360 C   0  0  0  0  0
   10.9600   -3.5200  -19.7650 C   0  0  0  0  0
   11.7620   -2.3980  -19.7310 C   0  0  0  0  0
   11.8980   -1.5570  -20.8160 C   0  0  0  0  0
   11.1990   -1.8510  -21.9870 C   0  0  0  0  0
   10.3810   -2.9790  -22.0470 C   0  0  0  0  0
   11.3220   -1.0010  -23.1190 N   0  3  0  0  0
   12.0630    0.0080  -23.0440 O   0  5  0  0  0
   10.6850   -1.2840  -24.1620 O   0  0  0  0  0
   12.5080   -2.0870  -18.4840 C   0  0  0  0  0
   13.5450   -1.4330  -18.5520 O   0  0  0  0  0
   11.9450   -2.5550  -17.3020 N   0  0  0  0  0
   12.5350   -2.3140  -16.0130 C   0  0  0  0  0
   12.0310   -1.0240  -15.3700 C   0  0  0  0  0
   10.5180   -0.9890  -15.1620 C   0  0  0  0  0
   10.0410   -2.0860  -14.3220 N   0  0  0  0  0
   10.6000   -1.9860  -12.9680 C   0  0  0  0  0
   10.0980   -3.1330  -12.0840 C   0  0  0  0  0
    8.6310   -3.1500  -12.0340 N   0  0  0  0  0
    8.0730   -3.2510  -13.3880 C   0  0  0  0  0
    8.5740   -2.1040  -14.2710 C   0  0  0  0  0
    8.1530   -4.2450  -11.1920 C   0  0  0  0  0
    8.5840   -4.0960   -9.7350 C   0  0  0  0  0
    8.1030   -2.8030   -9.0790 C   0  0  0  0  0
    6.6630   -2.6780   -9.0910 N   0  0  0  0  0
    5.8460   -3.1460   -8.0840 C   0  0  0  0  0
    6.2200   -3.7190   -7.0650 O   0  0  0  0  0
    4.5350   -2.8790   -8.3810 O   0  0  0  0  0
    3.5740   -3.3090   -7.4240 C   0  0  0  0  0
    3.1270   -4.7310   -7.7580 C   0  0  0  0  0
    2.1840   -5.2050   -6.7660 N   0  0  0  0  0
    2.4980   -4.7960   -9.1480 C   0  0  0  0  0
    2.1230   -6.1470   -9.4370 O   0  0  0  0  0
    1.5440   -6.3570  -10.6570 C   0  0  0  0  0
    1.3360   -5.4790  -11.4890 O   0  0  0  0  0
    1.2320   -7.6960  -10.8080 N   0  0  0  0  0
    0.6110   -8.2490  -11.9800 C   0  0  0  0  0
    1.6300   -8.7080  -13.0220 C   0  0  0  0  0
    2.6000   -9.7690  -12.5090 C   0  0  0  0  0
    3.5420  -10.2110  -13.5360 N   0  0  0  0  0
    4.4040   -9.1020  -13.9640 C   0  0  0  0  0
    5.3930   -9.5630  -15.0400 C   0  0  0  0  0
    6.2060  -10.6860  -14.5550 N   0  0  0  0  0
    5.3440  -11.7950  -14.1260 C   0  0  0  0  0
    4.3560  -11.3320  -13.0500 C   0  0  0  0  0
    7.1460  -11.1280  -15.5830 C   0  0  0  0  0
    8.1640  -10.0490  -15.9490 C   0  0  0  0  0
    9.0060   -9.5700  -14.7680 C   0  0  0  0  0
    8.7520   -7.0270  -21.8930 C   0  0  0  0  0
    8.7350   -7.5540  -20.5650 O   0  0  0  0  0
    9.1110   -8.1230  -22.8990 C   0  0  0  0  0
    8.2410   -9.2390  -22.7660 O   0  0  0  0  0
   10.5690   -8.5720  -22.7520 C   0  0  0  0  0
   10.7220   -9.2790  -21.5210 O   0  0  0  0  0
   12.0110  -12.7670   -8.2310 H   0  0  0  0  0
    9.5570  -12.6220   -8.0650 H   0  0  0  0  0
   10.1980  -15.5100   -8.8610 H   0  0  0  0  0
    9.7710  -14.6080   -6.6210 H   0  0  0  0  0
    7.8100  -15.7010   -9.4840 H   0  0  0  0  0
    7.7670  -13.0600   -8.5450 H   0  0  0  0  0
    9.3260  -14.9190  -11.3210 H   0  0  0  0  0
    6.7270  -13.3360  -11.3170 H   0  0  0  0  0
    6.9280  -15.0170  -11.8750 H   0  0  0  0  0
    8.7760  -13.2790  -12.9030 H   0  0  0  0  0
   10.8940  -11.9140  -10.0010 H   0  0  0  0  0
   10.5180  -11.8120  -12.0290 H   0  0  0  0  0
   13.2870  -15.0930  -11.9470 H   0  0  0  0  0
   12.9290  -12.6680  -15.4870 H   0  0  0  0  0
    9.2780  -11.1850  -13.4370 H   0  0  0  0  0
   13.4050   -6.0040  -23.3570 H   0  0  0  0  0
   13.3120   -8.3970  -23.2900 H   0  0  0  0  0
   13.0670   -8.1470  -21.5420 H   0  0  0  0  0
   11.4280   -6.8650  -23.7690 H   0  0  0  0  0
    9.7200   -5.4110  -22.9620 H   0  0  0  0  0
   10.8630   -4.1730  -18.9010 H   0  0  0  0  0
   12.5370   -0.6780  -20.7670 H   0  0  0  0  0
    9.8330   -3.2130  -22.9570 H   0  0  0  0  0
   11.0490   -3.0370  -17.3250 H   0  0  0  0  0
   12.2780   -3.1700  -15.3810 H   0  0  0  0  0
   13.6220   -2.3010  -16.1400 H   0  0  0  0  0
   12.5200   -0.8890  -14.3980 H   0  0  0  0  0
   12.3290   -0.1790  -16.0020 H   0  0  0  0  0
   10.1980   -0.0500  -14.7000 H   0  0  0  0  0
   10.0070   -1.0820  -16.1260 H   0  0  0  0  0
   10.3390   -1.0230  -12.5100 H   0  0  0  0  0
   11.6950   -2.0380  -13.0180 H   0  0  0  0  0
   10.4850   -4.0900  -12.4620 H   0  0  0  0  0
   10.4990   -2.9950  -11.0730 H   0  0  0  0  0
    6.9780   -3.2000  -13.3380 H   0  0  0  0  0
    8.3350   -4.2150  -13.8460 H   0  0  0  0  0
    8.1740   -2.2420  -15.2830 H   0  0  0  0  0
    8.1860   -1.1480  -13.8940 H   0  0  0  0  0
    8.5180   -5.1830  -11.6240 H   0  0  0  0  0
    7.0610   -4.2450  -11.2600 H   0  0  0  0  0
    9.6790   -4.1400   -9.6880 H   0  0  0  0  0
    8.2020   -4.9450   -9.1550 H   0  0  0  0  0
    8.5010   -1.9400   -9.6210 H   0  0  0  0  0
    8.4360   -2.7330   -8.0390 H   0  0  0  0  0
    6.2290   -2.2190   -9.8860 H   0  0  0  0  0
    4.0260   -3.2530   -6.4280 H   0  0  0  0  0
    2.7270   -2.6160   -7.4680 H   0  0  0  0  0
    3.9800   -5.4170   -7.6960 H   0  0  0  0  0
    2.5120   -5.3810   -5.8350 H   0  0  0  0  0
    1.2890   -5.5370   -7.0730 H   0  0  0  0  0
    3.2140   -4.4780   -9.9130 H   0  0  0  0  0
    1.6050   -4.1650   -9.2150 H   0  0  0  0  0
    1.4560   -8.3280  -10.0410 H   0  0  0  0  0
    0.0090   -9.1010  -11.6480 H   0  0  0  0  0
   -0.0670   -7.4940  -12.3870 H   0  0  0  0  0
    1.1000   -9.1100  -13.8940 H   0  0  0  0  0
    2.1970   -7.8330  -13.3640 H   0  0  0  0  0
    3.1810   -9.4040  -11.6570 H   0  0  0  0  0
    2.0460  -10.6560  -12.1850 H   0  0  0  0  0
    4.9530   -8.6830  -13.1100 H   0  0  0  0  0
    3.7860   -8.2970  -14.3810 H   0  0  0  0  0
    4.8470   -9.8430  -15.9510 H   0  0  0  0  0
    6.0470   -8.7210  -15.2970 H   0  0  0  0  0
    5.9620  -12.5990  -13.7090 H   0  0  0  0  0
    4.7950  -12.2140  -14.9800 H   0  0  0  0  0
    3.7020  -12.1750  -12.7930 H   0  0  0  0  0
    4.9020  -11.0510  -12.1390 H   0  0  0  0  0
    6.5650  -11.4430  -16.4550 H   0  0  0  0  0
    7.6620  -12.0070  -15.1850 H   0  0  0  0  0
    7.6290   -9.1960  -16.3820 H   0  0  0  0  0
    8.8370  -10.4350  -16.7240 H   0  0  0  0  0
    8.3560   -9.1490  -13.9940 H   0  0  0  0  0
    9.7170   -8.7960  -15.0710 H   0  0  0  0  0
    7.7410   -6.6480  -22.0770 H   0  0  0  0  0
    7.8870   -8.0110  -20.4640 H   0  0  0  0  0
    8.9760   -7.7260  -23.9130 H   0  0  0  0  0
    8.7210   -9.9090  -22.2530 H   0  0  0  0  0
   10.8180   -9.2760  -23.5550 H   0  0  0  0  0
    9.8390   -9.5900  -21.2720 H   0  0  0  0  0
  1  2  1  0  0  0
  1 85  1  0  0  0
  2  3  1  0  0  0
  2 11  1  0  0  0
  2 86  1  0  0  0
  3  4  1  0  0  0
  3  5  1  0  0  0
  3 87  1  0  0  0
  4 88  1  0  0  0
  5  6  1  0  0  0
  5  7  1  0  0  0
  5 89  1  0  0  0
  6 90  1  0  0  0
  7  8  1  0  0  0
  7 10  1  0  0  0
  7 91  1  0  0  0
  8  9  1  0  0  0
  8 92  1  0  0  0
  8 93  1  0  0  0
  9 94  1  0  0  0
 10 11  1  0  0  0
 11 12  1  0  0  0
 11 95  1  0  0  0
 12 13  1  0  0  0
 13 14  1  0  0  0
 13 15  2  0  0  0
 14 21  2  0  0  0
 14 96  1  0  0  0
 15 16  1  0  0  0
 15 97  1  0  0  0
 16 17  1  0  0  0
 16 20  2  0  0  0
 17 18  1  0  0  0
 17 19  2  0  0  0
 20 21  1  0  0  0
 20 98  1  0  0  0
 21 22  1  0  0  0
 22 23  2  0  0  0
 22 24  1  0  0  0
 24 78  1  0  0  0
 24 99  1  0  0  0
 25 26  1  0  0  0
 25100  1  0  0  0
 26 27  1  0  0  0
 26101  1  0  0  0
 26102  1  0  0  0
 27 28  1  0  0  0
 27 83  1  0  0  0
 27103  1  0  0  0
 28 29  1  0  0  0
 29 30  1  0  0  0
 29 79  1  0  0  0
 29104  1  0  0  0
 30 31  1  0  0  0
 31 32  2  0  0  0
 31 36  1  0  0  0
 32 33  1  0  0  0
 32105  1  0  0  0
 33 34  2  0  0  0
 33 40  1  0  0  0
 34 35  1  0  0  0
 34106  1  0  0  0
 35 36  2  0  0  0
 35 37  1  0  0  0
 36107  1  0  0  0
 37 38  1  0  0  0
 37 39  2  0  0  0
 40 41  2  0  0  0
 40 42  1  0  0  0
 42 43  1  0  0  0
 42108  1  0  0  0
 43 44  1  0  0  0
 43109  1  0  0  0
 43110  1  0  0  0
 44 45  1  0  0  0
 44111  1  0  0  0
 44112  1  0  0  0
 45 46  1  0  0  0
 45113  1  0  0  0
 45114  1  0  0  0
 46 47  1  0  0  0
 46 51  1  0  0  0
 47 48  1  0  0  0
 47115  1  0  0  0
 47116  1  0  0  0
 48 49  1  0  0  0
 48117  1  0  0  0
 48118  1  0  0  0
 49 50  1  0  0  0
 49 52  1  0  0  0
 50 51  1  0  0  0
 50119  1  0  0  0
 50120  1  0  0  0
 51121  1  0  0  0
 51122  1  0  0  0
 52 53  1  0  0  0
 52123  1  0  0  0
 52124  1  0  0  0
 53 54  1  0  0  0
 53125  1  0  0  0
 53126  1  0  0  0
 54 55  1  0  0  0
 54127  1  0  0  0
 54128  1  0  0  0
 55 56  1  0  0  0
 55129  1  0  0  0
 56 57  2  0  0  0
 56 58  1  0  0  0
 58 59  1  0  0  0
 59 60  1  0  0  0
 59130  1  0  0  0
 59131  1  0  0  0
 60 61  1  0  0  0
 60 62  1  0  0  0
 60132  1  0  0  0
 61133  1  0  0  0
 61134  1  0  0  0
 62 63  1  0  0  0
 62135  1  0  0  0
 62136  1  0  0  0
 63 64  1  0  0  0
 64 65  2  0  0  0
 64 66  1  0  0  0
 66 67  1  0  0  0
 66137  1  0  0  0
 67 68  1  0  0  0
 67138  1  0  0  0
 67139  1  0  0  0
 68 69  1  0  0  0
 68140  1  0  0  0
 68141  1  0  0  0
 69 70  1  0  0  0
 69142  1  0  0  0
 69143  1  0  0  0
 70 71  1  0  0  0
 70 75  1  0  0  0
 71 72  1  0  0  0
 71144  1  0  0  0
 71145  1  0  0  0
 72 73  1  0  0  0
 72146  1  0  0  0
 72147  1  0  0  0
 73 74  1  0  0  0
 73 76  1  0  0  0
 74 75  1  0  0  0
 74148  1  0  0  0
 74149  1  0  0  0
 75150  1  0  0  0
 75151  1  0  0  0
 76 77  1  0  0  0
 76152  1  0  0  0
 76153  1  0  0  0
 77 78  1  0  0  0
 77154  1  0  0  0
 77155  1  0  0  0
 78156  1  0  0  0
 78157  1  0  0  0
 79 80  1  0  0  0
 79 81  1  0  0  0
 79158  1  0  0  0
 80159  1  0  0  0
 81 82  1  0  0  0
 81 83  1  0  0  0
 81160  1  0  0  0
 82161  1  0  0  0
 83 84  1  0  0  0
 83162  1  0  0  0
 84163  1  0  0  0
M  CHG  1  17   1
M  CHG  1  18  -1
M  CHG  1  37   1
M  CHG  1  38  -1
M  END
$$$$
