BV3
  CCTOOLS-0919241035

195202  0  0  0  0  0  0  0  0999 V2000
   11.0800   -6.4730  -10.9120 O   0  0  0  0  0
   10.3360   -6.7380   -9.7270 C   0  0  0  0  0
   11.2660   -7.2130   -8.6110 C   0  0  0  0  0
   12.1590   -6.1580   -8.2640 O   0  0  0  0  0
   10.4500   -7.6340   -7.3860 C   0  0  0  0  0
    9.8130   -6.4860   -6.8190 O   0  0  0  0  0
    9.3730   -8.6500   -7.7880 C   0  0  0  0  0
    8.4540   -9.0130   -6.6260 C   0  0  0  0  0
    7.4900   -9.9420   -7.0870 O   0  0  0  0  0
    8.5460   -8.1250   -8.8380 O   0  0  0  0  0
    9.2690   -7.7940  -10.0260 C   0  0  0  0  0
    9.8680   -8.9440  -10.6210 O   0  0  0  0  0
    9.0980   -9.6480  -11.5060 C   0  0  0  0  0
    7.8960  -10.2070  -11.0830 C   0  0  0  0  0
    9.5220   -9.8000  -12.8230 C   0  0  0  0  0
    8.7370  -10.5180  -13.7250 C   0  0  0  0  0
    9.1650  -10.6760  -15.0700 N   0  3  0  0  0
    8.4440  -11.3260  -15.8650 O   0  5  0  0  0
   10.2530  -10.1620  -15.4250 O   0  0  0  0  0
    7.5310  -11.0810  -13.3060 C   0  0  0  0  0
    7.1100  -10.9250  -11.9850 C   0  0  0  0  0
    5.8520  -11.5090  -11.5480 C   0  0  0  0  0
    5.6760  -11.8070  -10.3530 O   0  0  0  0  0
    4.8640  -11.6910  -12.5220 N   0  0  0  0  0
   15.3640   -8.2860   -6.6700 O   0  0  0  0  0
   15.2070   -9.4890   -7.4020 C   0  0  0  0  0
   15.2530  -10.6610   -6.4290 C   0  0  0  0  0
   16.5130  -10.5980   -5.7460 O   0  0  0  0  0
   16.6420  -11.5880   -4.7210 C   0  0  0  0  0
   17.8880  -11.4500   -4.0400 O   0  0  0  0  0
   18.1330  -10.2570   -3.4320 C   0  0  0  0  0
   17.2800   -9.7990   -2.4270 C   0  0  0  0  0
   17.5500   -8.5860   -1.8270 C   0  0  0  0  0
   18.6330   -7.8110   -2.1860 C   0  0  0  0  0
   19.4850   -8.2700   -3.1910 C   0  0  0  0  0
   19.2350   -9.4930   -3.8140 C   0  0  0  0  0
   20.6080   -7.4920   -3.5800 N   0  3  0  0  0
   20.8150   -6.3950   -3.0070 O   0  5  0  0  0
   21.3620   -7.9230   -4.4850 O   0  0  0  0  0
   16.6430   -8.0990   -0.7560 C   0  0  0  0  0
   17.0780   -7.3270    0.0940 O   0  0  0  0  0
   15.3300   -8.5510   -0.8130 N   0  0  0  0  0
   14.3280   -8.1500    0.1370 C   0  0  0  0  0
   13.5790   -6.8920   -0.2960 C   0  0  0  0  0
   12.8640   -7.0320   -1.6390 C   0  0  0  0  0
   11.8870   -8.1190   -1.6430 N   0  0  0  0  0
   10.8110   -7.8570   -0.6790 C   0  0  0  0  0
    9.7850   -8.9960   -0.6850 C   0  0  0  0  0
    9.2320   -9.1950   -2.0300 N   0  0  0  0  0
   10.3080   -9.4560   -2.9940 C   0  0  0  0  0
   11.3330   -8.3160   -2.9880 C   0  0  0  0  0
    8.2570  -10.2830   -2.0340 C   0  0  0  0  0
    7.0400   -9.9840   -1.1610 C   0  0  0  0  0
    6.2830   -8.7220   -1.5690 C   0  0  0  0  0
    5.7930   -8.7820   -2.9520 N   0  0  0  0  0
    5.1080   -7.8130   -3.4980 C   0  0  0  0  0
    4.6170   -6.6030   -3.2130 C   0  0  0  0  0
    4.5750   -5.7430   -2.1960 N   0  0  0  0  0
    5.1860   -6.0110   -0.9210 C   0  0  0  0  0
    5.0460   -4.8410    0.0380 C   0  0  0  0  0
    3.6630   -4.5310    0.3160 N   0  0  0  0  0
    2.9450   -5.0920    1.3510 C   0  0  0  0  0
    3.3730   -5.9120    2.1570 O   0  0  0  0  0
    1.6660   -4.6010    1.3560 O   0  0  0  0  0
    0.8070   -5.0970    2.3760 C   0  0  0  0  0
    0.0860   -6.3450    1.8710 C   0  0  0  0  0
   -0.7570   -6.8930    2.9130 N   0  0  0  0  0
   -0.7510   -6.0300    0.6330 C   0  0  0  0  0
   -1.3840   -7.2290    0.1700 O   0  0  0  0  0
   -2.1710   -7.0970   -0.9390 C   0  0  0  0  0
   -2.3580   -6.0440   -1.5390 O   0  0  0  0  0
   -2.7170   -8.3220   -1.2770 N   0  0  0  0  0
   -3.5940   -8.5280   -2.3970 C   0  0  0  0  0
   -2.8290   -8.8790   -3.6620 C   0  0  0  0  0
   -2.0580  -10.1200   -3.5170 N   0  0  0  0  0
   -1.3670  -10.6380   -4.4960 C   0  0  0  0  0
   -1.0600  -10.4160   -5.7780 C   0  0  0  0  0
   -1.3100   -9.5250   -6.7380 N   0  0  0  0  0
   -2.1450   -8.3730   -6.5360 C   0  0  0  0  0
   -2.2560   -7.5030   -7.7860 C   0  0  0  0  0
   -0.9210   -6.9360   -8.2630 C   0  0  0  0  0
    0.0550   -7.9800   -8.5690 N   0  0  0  0  0
   -0.4070   -8.8150   -9.6830 C   0  0  0  0  0
    0.6170   -9.9080  -10.0080 C   0  0  0  0  0
    1.9270   -9.3210  -10.3160 N   0  0  0  0  0
    2.3900   -8.4870   -9.2000 C   0  0  0  0  0
    1.3660   -7.3940   -8.8760 C   0  0  0  0  0
    2.9040  -10.3650  -10.6240 C   0  0  0  0  0
    2.5370  -11.1600  -11.8750 C   0  0  0  0  0
    3.5560  -12.2370  -12.2410 C   0  0  0  0  0
   -0.2370  -11.5980   -5.8890 C   0  0  0  0  0
    0.4470  -12.2130   -6.6650 O   0  0  0  0  0
   -0.5650  -11.8590   -4.4730 C   0  0  0  0  0
   -0.2320  -12.7530   -3.7390 O   0  0  0  0  0
    4.0350   -6.4220   -4.5230 C   0  0  0  0  0
    3.4000   -5.6410   -5.1830 O   0  0  0  0  0
    4.5710   -7.7570   -4.8560 C   0  0  0  0  0
    4.5070   -8.4010   -5.8700 O   0  0  0  0  0
   16.5560  -13.0000   -5.3060 C   0  0  0  0  0
   17.6840  -13.2330   -6.1530 O   0  0  0  0  0
   15.2540  -13.1490   -6.0960 C   0  0  0  0  0
   15.1970  -14.4120   -6.7470 O   0  0  0  0  0
   15.0790  -12.0220   -7.1200 C   0  0  0  0  0
   16.0430  -12.1780   -8.1620 O   0  0  0  0  0
   10.4830   -6.6400  -11.6580 H   0  0  0  0  0
    9.8580   -5.7970   -9.4290 H   0  0  0  0  0
   11.8830   -8.0470   -8.9630 H   0  0  0  0  0
   12.2900   -5.6310   -9.0670 H   0  0  0  0  0
   11.1090   -8.0430   -6.6120 H   0  0  0  0  0
    9.5050   -5.9500   -7.5640 H   0  0  0  0  0
    9.8450   -9.5740   -8.1420 H   0  0  0  0  0
    7.9470   -8.1200   -6.2600 H   0  0  0  0  0
    9.0320   -9.4640   -5.8200 H   0  0  0  0  0
    7.5320   -9.9390   -8.0580 H   0  0  0  0  0
    8.5540   -7.4020  -10.7570 H   0  0  0  0  0
    7.5720  -10.0830  -10.0520 H   0  0  0  0  0
   10.4640   -9.3590  -13.1430 H   0  0  0  0  0
    6.9170  -11.6410  -14.0070 H   0  0  0  0  0
    5.0370  -11.3730  -13.4700 H   0  0  0  0  0
   15.4780   -7.5710   -7.3180 H   0  0  0  0  0
   14.2470   -9.4710   -7.9210 H   0  0  0  0  0
   16.0150   -9.5750   -8.1300 H   0  0  0  0  0
   14.4540  -10.5220   -5.6900 H   0  0  0  0  0
   15.8430  -11.4410   -3.9830 H   0  0  0  0  0
   16.4220  -10.3980   -2.1320 H   0  0  0  0  0
   18.8270   -6.8580   -1.6990 H   0  0  0  0  0
   19.8950   -9.8560   -4.5980 H   0  0  0  0  0
   15.0320   -9.1420   -1.5870 H   0  0  0  0  0
   13.6280   -8.9860    0.2330 H   0  0  0  0  0
   14.8220   -8.0100    1.1040 H   0  0  0  0  0
   12.8380   -6.6300    0.4690 H   0  0  0  0  0
   14.2940   -6.0610   -0.3510 H   0  0  0  0  0
   12.3410   -6.1110   -1.9120 H   0  0  0  0  0
   13.5910   -7.2550   -2.4260 H   0  0  0  0  0
   10.3110   -6.9060   -0.9040 H   0  0  0  0  0
   11.2340   -7.7740    0.3290 H   0  0  0  0  0
   10.2530   -9.9190   -0.3160 H   0  0  0  0  0
    8.9770   -8.7400    0.0110 H   0  0  0  0  0
    9.8850   -9.5380   -4.0020 H   0  0  0  0  0
   10.8090  -10.4070   -2.7700 H   0  0  0  0  0
   12.1410   -8.5720   -3.6840 H   0  0  0  0  0
   10.8650   -7.3930   -3.3560 H   0  0  0  0  0
    8.7690  -11.1940   -1.7080 H   0  0  0  0  0
    7.9430  -10.4250   -3.0730 H   0  0  0  0  0
    7.3720   -9.8860   -0.1200 H   0  0  0  0  0
    6.3480  -10.8340   -1.1990 H   0  0  0  0  0
    6.9460   -7.8530   -1.5050 H   0  0  0  0  0
    5.4240   -8.5410   -0.9170 H   0  0  0  0  0
    6.0040   -9.6210   -3.4920 H   0  0  0  0  0
    4.0810   -4.8600   -2.3490 H   0  0  0  0  0
    4.7200   -6.9150   -0.5180 H   0  0  0  0  0
    6.2440   -6.2180   -1.1100 H   0  0  0  0  0
    5.5210   -5.0770    0.9950 H   0  0  0  0  0
    5.5120   -3.9360   -0.3660 H   0  0  0  0  0
    3.1920   -3.8610   -0.2850 H   0  0  0  0  0
    1.4110   -5.3130    3.2650 H   0  0  0  0  0
    0.0890   -4.3060    2.6200 H   0  0  0  0  0
    0.8140   -7.1330    1.6440 H   0  0  0  0  0
   -0.3500   -7.0860    3.8080 H   0  0  0  0  0
   -1.6580   -7.2530    2.6620 H   0  0  0  0  0
   -0.1200   -5.6520   -0.1780 H   0  0  0  0  0
   -1.5280   -5.2900    0.8520 H   0  0  0  0  0
   -2.4840   -9.1260   -0.6970 H   0  0  0  0  0
   -4.1570   -7.6000   -2.5400 H   0  0  0  0  0
   -4.2970   -9.3210   -2.1230 H   0  0  0  0  0
   -2.1250   -8.0870   -3.9360 H   0  0  0  0  0
   -3.5260   -9.0300   -4.4930 H   0  0  0  0  0
   -2.0750  -10.5820   -2.6080 H   0  0  0  0  0
   -0.8770   -9.6880   -7.6510 H   0  0  0  0  0
   -3.1350   -8.7450   -6.2520 H   0  0  0  0  0
   -1.7400   -7.8100   -5.6900 H   0  0  0  0  0
   -2.6960   -8.0930   -8.6000 H   0  0  0  0  0
   -2.9470   -6.6770   -7.5770 H   0  0  0  0  0
   -1.0440   -6.3200   -9.1590 H   0  0  0  0  0
   -0.4820   -6.3100   -7.4800 H   0  0  0  0  0
   -0.5940   -8.2040  -10.5770 H   0  0  0  0  0
   -1.3560   -9.2960   -9.4130 H   0  0  0  0  0
    0.6930  -10.6080   -9.1650 H   0  0  0  0  0
    0.2570  -10.4770  -10.8740 H   0  0  0  0  0
    3.3380   -8.0070   -9.4700 H   0  0  0  0  0
    2.5750   -9.0990   -8.3070 H   0  0  0  0  0
    1.7260   -6.8250   -8.0100 H   0  0  0  0  0
    1.2910   -6.6930   -9.7190 H   0  0  0  0  0
    2.9880  -11.0130   -9.7470 H   0  0  0  0  0
    3.8670   -9.8650  -10.7690 H   0  0  0  0  0
    2.4310  -10.4610  -12.7150 H   0  0  0  0  0
    1.5610  -11.6370  -11.7280 H   0  0  0  0  0
    3.2310  -12.7650  -13.1440 H   0  0  0  0  0
    3.6660  -12.9740  -11.4400 H   0  0  0  0  0
   16.6170  -13.7540   -4.5140 H   0  0  0  0  0
   17.4410  -12.8960   -7.0280 H   0  0  0  0  0
   14.4110  -13.1080   -5.3950 H   0  0  0  0  0
   14.8840  -14.2470   -7.6510 H   0  0  0  0  0
   14.0910  -12.1020   -7.5880 H   0  0  0  0  0
   15.6420  -11.8100   -8.9630 H   0  0  0  0  0
  1  2  1  0  0  0
  1105  1  0  0  0
  2  3  1  0  0  0
  2 11  1  0  0  0
  2106  1  0  0  0
  3  4  1  0  0  0
  3  5  1  0  0  0
  3107  1  0  0  0
  4108  1  0  0  0
  5  6  1  0  0  0
  5  7  1  0  0  0
  5109  1  0  0  0
  6110  1  0  0  0
  7  8  1  0  0  0
  7 10  1  0  0  0
  7111  1  0  0  0
  8  9  1  0  0  0
  8112  1  0  0  0
  8113  1  0  0  0
  9114  1  0  0  0
 10 11  1  0  0  0
 11 12  1  0  0  0
 11115  1  0  0  0
 12 13  1  0  0  0
 13 14  2  0  0  0
 13 15  1  0  0  0
 14 21  1  0  0  0
 14116  1  0  0  0
 15 16  2  0  0  0
 15117  1  0  0  0
 16 17  1  0  0  0
 16 20  1  0  0  0
 17 18  1  0  0  0
 17 19  2  0  0  0
 20 21  2  0  0  0
 20118  1  0  0  0
 21 22  1  0  0  0
 22 23  2  0  0  0
 22 24  1  0  0  0
 24 90  1  0  0  0
 24119  1  0  0  0
 25 26  1  0  0  0
 25120  1  0  0  0
 26 27  1  0  0  0
 26121  1  0  0  0
 26122  1  0  0  0
 27 28  1  0  0  0
 27103  1  0  0  0
 27123  1  0  0  0
 28 29  1  0  0  0
 29 30  1  0  0  0
 29 99  1  0  0  0
 29124  1  0  0  0
 30 31  1  0  0  0
 31 32  2  0  0  0
 31 36  1  0  0  0
 32 33  1  0  0  0
 32125  1  0  0  0
 33 34  2  0  0  0
 33 40  1  0  0  0
 34 35  1  0  0  0
 34126  1  0  0  0
 35 36  2  0  0  0
 35 37  1  0  0  0
 36127  1  0  0  0
 37 38  1  0  0  0
 37 39  2  0  0  0
 40 41  2  0  0  0
 40 42  1  0  0  0
 42 43  1  0  0  0
 42128  1  0  0  0
 43 44  1  0  0  0
 43129  1  0  0  0
 43130  1  0  0  0
 44 45  1  0  0  0
 44131  1  0  0  0
 44132  1  0  0  0
 45 46  1  0  0  0
 45133  1  0  0  0
 45134  1  0  0  0
 46 47  1  0  0  0
 46 51  1  0  0  0
 47 48  1  0  0  0
 47135  1  0  0  0
 47136  1  0  0  0
 48 49  1  0  0  0
 48137  1  0  0  0
 48138  1  0  0  0
 49 50  1  0  0  0
 49 52  1  0  0  0
 50 51  1  0  0  0
 50139  1  0  0  0
 50140  1  0  0  0
 51141  1  0  0  0
 51142  1  0  0  0
 52 53  1  0  0  0
 52143  1  0  0  0
 52144  1  0  0  0
 53 54  1  0  0  0
 53145  1  0  0  0
 53146  1  0  0  0
 54 55  1  0  0  0
 54147  1  0  0  0
 54148  1  0  0  0
 55 56  1  0  0  0
 55149  1  0  0  0
 56 57  2  0  0  0
 56 97  1  0  0  0
 57 58  1  0  0  0
 57 95  1  0  0  0
 58 59  1  0  0  0
 58150  1  0  0  0
 59 60  1  0  0  0
 59151  1  0  0  0
 59152  1  0  0  0
 60 61  1  0  0  0
 60153  1  0  0  0
 60154  1  0  0  0
 61 62  1  0  0  0
 61155  1  0  0  0
 62 63  2  0  0  0
 62 64  1  0  0  0
 64 65  1  0  0  0
 65 66  1  0  0  0
 65156  1  0  0  0
 65157  1  0  0  0
 66 67  1  0  0  0
 66 68  1  0  0  0
 66158  1  0  0  0
 67159  1  0  0  0
 67160  1  0  0  0
 68 69  1  0  0  0
 68161  1  0  0  0
 68162  1  0  0  0
 69 70  1  0  0  0
 70 71  2  0  0  0
 70 72  1  0  0  0
 72 73  1  0  0  0
 72163  1  0  0  0
 73 74  1  0  0  0
 73164  1  0  0  0
 73165  1  0  0  0
 74 75  1  0  0  0
 74166  1  0  0  0
 74167  1  0  0  0
 75 76  1  0  0  0
 75168  1  0  0  0
 76 77  2  0  0  0
 76 93  1  0  0  0
 77 78  1  0  0  0
 77 91  1  0  0  0
 78 79  1  0  0  0
 78169  1  0  0  0
 79 80  1  0  0  0
 79170  1  0  0  0
 79171  1  0  0  0
 80 81  1  0  0  0
 80172  1  0  0  0
 80173  1  0  0  0
 81 82  1  0  0  0
 81174  1  0  0  0
 81175  1  0  0  0
 82 83  1  0  0  0
 82 87  1  0  0  0
 83 84  1  0  0  0
 83176  1  0  0  0
 83177  1  0  0  0
 84 85  1  0  0  0
 84178  1  0  0  0
 84179  1  0  0  0
 85 86  1  0  0  0
 85 88  1  0  0  0
 86 87  1  0  0  0
 86180  1  0  0  0
 86181  1  0  0  0
 87182  1  0  0  0
 87183  1  0  0  0
 88 89  1  0  0  0
 88184  1  0  0  0
 88185  1  0  0  0
 89 90  1  0  0  0
 89186  1  0  0  0
 89187  1  0  0  0
 90188  1  0  0  0
 90189  1  0  0  0
 91 92  2  0  0  0
 91 93  1  0  0  0
 93 94  2  0  0  0
 95 96  2  0  0  0
 95 97  1  0  0  0
 97 98  2  0  0  0
 99100  1  0  0  0
 99101  1  0  0  0
 99190  1  0  0  0
100191  1  0  0  0
101102  1  0  0  0
101103  1  0  0  0
101192  1  0  0  0
102193  1  0  0  0
103104  1  0  0  0
103194  1  0  0  0
104195  1  0  0  0
M  CHG  1  17   1
M  CHG  1  18  -1
M  CHG  1  37   1
M  CHG  1  38  -1
M  END
$$$$
