BV4
  CCTOOLS-0919241035

249256  0  0  0  0  0  0  0  0999 V2000
   -1.7830  -24.5710   30.7800 O   0  0  0  0  0
   -0.9770  -23.4220   30.5410 C   0  0  0  0  0
   -1.6480  -22.5070   29.5160 C   0  0  0  0  0
   -2.8650  -22.0050   30.0590 O   0  0  0  0  0
   -0.7170  -21.3470   29.1540 C   0  0  0  0  0
   -0.5470  -20.4980   30.2920 O   0  0  0  0  0
    0.6560  -21.8810   28.7250 C   0  0  0  0  0
    1.6600  -20.7620   28.4680 C   0  0  0  0  0
    2.8960  -21.3420   28.0900 O   0  0  0  0  0
    1.2130  -22.7270   29.7430 O   0  0  0  0  0
    0.4030  -23.8650   30.0490 C   0  0  0  0  0
    0.2690  -24.7390   28.9290 O   0  0  0  0  0
    1.2340  -25.6960   28.7810 C   0  0  0  0  0
    2.5630  -25.3180   28.6200 C   0  0  0  0  0
    0.8790  -27.0420   28.7900 C   0  0  0  0  0
    1.8630  -28.0190   28.6380 C   0  0  0  0  0
    1.5070  -29.3930   28.6470 N   0  3  0  0  0
    2.4080  -30.2560   28.5090 O   0  5  0  0  0
    0.3010  -29.7080   28.7930 O   0  0  0  0  0
    3.1980  -27.6450   28.4770 C   0  0  0  0  0
    3.5480  -26.2950   28.4680 C   0  0  0  0  0
    4.9390  -25.9050   28.3020 C   0  0  0  0  0
    5.8550  -26.6760   28.6360 O   0  0  0  0  0
    5.1830  -24.6480   27.7350 N   0  0  0  0  0
   13.6840   -6.6330   -6.7990 O   0  0  0  0  0
   13.1440   -5.3470   -6.5480 C   0  0  0  0  0
   11.8340   -5.2110   -7.3140 C   0  0  0  0  0
   12.1280   -5.4190   -8.7030 O   0  0  0  0  0
   10.9580   -5.4220   -9.5270 C   0  0  0  0  0
   11.3000   -5.6830  -10.8870 O   0  0  0  0  0
   11.9390   -6.8550  -11.1510 C   0  0  0  0  0
   11.3260   -8.0690  -10.8420 C   0  0  0  0  0
   11.9960   -9.2430  -11.1190 C   0  0  0  0  0
   13.2510   -9.2580  -11.6920 C   0  0  0  0  0
   13.8640   -8.0430  -12.0010 C   0  0  0  0  0
   13.2080   -6.8420  -11.7310 C   0  0  0  0  0
   15.1550   -8.0300  -12.5920 N   0  3  0  0  0
   15.7270   -9.1220  -12.8270 O   0  5  0  0  0
   15.6880   -6.9270  -12.8630 O   0  0  0  0  0
   11.3420  -10.5360  -10.7900 C   0  0  0  0  0
   11.6510  -11.5430  -11.4220 O   0  0  0  0  0
   10.4210  -10.5090   -9.7490 N   0  0  0  0  0
    9.7240  -11.6830   -9.2990 C   0  0  0  0  0
   10.4750  -12.4220   -8.1930 C   0  0  0  0  0
   10.7330  -11.5740   -6.9500 C   0  0  0  0  0
    9.5000  -11.0690   -6.3490 N   0  0  0  0  0
    8.6620  -12.1760   -5.8710 C   0  0  0  0  0
    7.3700  -11.6480   -5.2390 C   0  0  0  0  0
    7.6650  -10.7180   -4.1420 N   0  0  0  0  0
    8.5040   -9.6120   -4.6200 C   0  0  0  0  0
    9.7970  -10.1400   -5.2510 C   0  0  0  0  0
    6.4320  -10.2120   -3.5430 C   0  0  0  0  0
    5.6000  -11.3160   -2.8940 C   0  0  0  0  0
    6.3370  -12.0770   -1.7930 C   0  0  0  0  0
    7.5400  -12.7570   -2.2870 N   0  0  0  0  0
    8.3250  -13.4530   -1.5090 C   0  0  0  0  0
    8.4490  -13.8280   -0.2320 C   0  0  0  0  0
    7.8170  -13.6780    0.9320 N   0  0  0  0  0
    6.6080  -12.9130    1.0720 C   0  0  0  0  0
    6.1020  -12.8780    2.5080 C   0  0  0  0  0
    7.0990  -12.2430    3.4700 C   0  0  0  0  0
    6.5500  -12.2700    4.7800 O   0  0  0  0  0
    7.4370  -11.6890    5.7290 C   0  0  0  0  0
    6.7880  -11.7260    7.0990 C   0  0  0  0  0
    5.5850  -10.9720    7.0630 O   0  0  0  0  0
    4.9310  -10.9710    8.3270 C   0  0  0  0  0
    3.6580  -10.1540    8.2250 C   0  0  0  0  0
    3.9920   -8.8180    7.8720 O   0  0  0  0  0
    2.8310   -8.0080    7.7400 C   0  0  0  0  0
    3.2590   -6.5960    7.3620 C   0  0  0  0  0
    2.0820   -5.6410    7.2140 C   0  0  0  0  0
    1.3270   -5.5000    8.4380 N   0  0  0  0  0
    1.5980   -4.5490    9.3990 C   0  0  0  0  0
    2.4940   -3.7140    9.3470 O   0  0  0  0  0
    0.7120   -4.6670   10.4380 O   0  0  0  0  0
    0.8740   -3.7440   11.5090 C   0  0  0  0  0
    1.8250   -4.3340   12.5480 C   0  0  0  0  0
    2.0420   -3.3880   13.6230 N   0  0  0  0  0
    1.2800   -5.6450   13.1080 C   0  0  0  0  0
    2.2130   -6.1830   14.0520 O   0  0  0  0  0
    1.8540   -7.3640   14.6380 C   0  0  0  0  0
    0.8110   -7.9670   14.4070 O   0  0  0  0  0
    2.8370   -7.7700   15.5220 N   0  0  0  0  0
    2.7680   -8.9750   16.3030 C   0  0  0  0  0
    3.3780  -10.1710   15.5850 C   0  0  0  0  0
    4.8560   -9.9790   15.2660 C   0  0  0  0  0
    5.3310  -11.1320   14.5860 O   0  0  0  0  0
    6.7100  -11.0130   14.2590 C   0  0  0  0  0
    7.1640  -12.2790   13.5590 C   0  0  0  0  0
    6.9860  -13.3830   14.4350 O   0  0  0  0  0
    7.3960  -14.6020   13.8290 C   0  0  0  0  0
    7.1830  -15.7390   14.8090 C   0  0  0  0  0
    7.9710  -15.5060   15.9680 O   0  0  0  0  0
    7.7940  -16.5340   16.9350 C   0  0  0  0  0
    8.6640  -16.2220   18.1460 C   0  0  0  0  0
    8.5570  -17.2800   19.2370 C   0  0  0  0  0
    8.9850  -18.6070   18.7780 N   0  0  0  0  0
    8.9550  -19.6610   19.5480 C   0  0  0  0  0
    8.6270  -20.0280   20.7910 C   0  0  0  0  0
    8.1480  -19.4860   21.9110 N   0  0  0  0  0
    7.8180  -18.0920   22.0260 C   0  0  0  0  0
    7.2730  -17.7300   23.4060 C   0  0  0  0  0
    5.9860  -18.4650   23.7730 C   0  0  0  0  0
    6.1450  -19.9180   23.7570 N   0  0  0  0  0
    7.1150  -20.3470   24.7720 C   0  0  0  0  0
    7.2810  -21.8710   24.7600 C   0  0  0  0  0
    5.9900  -22.5380   24.9690 N   0  0  0  0  0
    5.0220  -22.1100   23.9520 C   0  0  0  0  0
    4.8550  -20.5870   23.9650 C   0  0  0  0  0
    6.1490  -23.9910   24.9550 C   0  0  0  0  0
    7.0290  -24.4950   26.0970 C   0  0  0  0  0
    6.5090  -24.1290   27.4850 C   0  0  0  0  0
    8.9850  -21.4120   20.5840 C   0  0  0  0  0
    9.0270  -22.4770   21.1410 O   0  0  0  0  0
    9.3530  -21.0250   19.2070 C   0  0  0  0  0
    9.7860  -21.6790   18.2950 O   0  0  0  0  0
    9.6640  -14.5750   -0.4660 C   0  0  0  0  0
   10.4900  -15.2480    0.0930 O   0  0  0  0  0
    9.5420  -14.1710   -1.8810 C   0  0  0  0  0
   10.2380  -14.4120   -2.8320 O   0  0  0  0  0
   10.2300   -4.0780   -9.4530 C   0  0  0  0  0
   11.0510   -3.0590  -10.0270 O   0  0  0  0  0
    9.9100   -3.7480   -7.9930 C   0  0  0  0  0
    9.3330   -2.4530   -7.8790 O   0  0  0  0  0
   11.1530   -3.8500   -7.1030 C   0  0  0  0  0
   12.0520   -2.7890   -7.4260 O   0  0  0  0  0
   -1.1770  -25.2900   31.0190 H   0  0  0  0  0
   -0.8820  -22.8910   31.4960 H   0  0  0  0  0
   -1.9130  -23.0770   28.6180 H   0  0  0  0  0
   -3.1950  -22.6820   30.6710 H   0  0  0  0  0
   -1.1640  -20.7310   28.3660 H   0  0  0  0  0
   -0.4720  -21.0840   31.0590 H   0  0  0  0  0
    0.5590  -22.4620   27.8000 H   0  0  0  0  0
    1.8020  -20.1730   29.3750 H   0  0  0  0  0
    1.3040  -20.1180   27.6640 H   0  0  0  0  0
    2.8420  -22.2890   28.3010 H   0  0  0  0  0
    0.9080  -24.4380   30.8320 H   0  0  0  0  0
    2.8320  -24.2640   28.6140 H   0  0  0  0  0
   -0.1630  -27.3260   28.9160 H   0  0  0  0  0
    3.9670  -28.4050   28.3580 H   0  0  0  0  0
    4.4000  -24.0840   27.4220 H   0  0  0  0  0
   14.6320   -6.5900   -6.5910 H   0  0  0  0  0
   12.9650   -5.2350   -5.4780 H   0  0  0  0  0
   13.8530   -4.5890   -6.8820 H   0  0  0  0  0
   11.1600   -6.0110   -6.9820 H   0  0  0  0  0
   10.2910   -6.2270   -9.1920 H   0  0  0  0  0
   10.3370   -8.0740  -10.3900 H   0  0  0  0  0
   13.7600  -10.1960  -11.9020 H   0  0  0  0  0
   13.6800   -5.8920  -11.9700 H   0  0  0  0  0
   10.2660   -9.6450   -9.2340 H   0  0  0  0  0
    8.7490  -11.3510   -8.9290 H   0  0  0  0  0
    9.5550  -12.3260  -10.1680 H   0  0  0  0  0
    9.9030  -13.3100   -7.8980 H   0  0  0  0  0
   11.4320  -12.7750   -8.5960 H   0  0  0  0  0
   11.2720  -12.1390   -6.1830 H   0  0  0  0  0
   11.3380  -10.7000   -7.2140 H   0  0  0  0  0
    9.2080  -12.7900   -5.1420 H   0  0  0  0  0
    8.3980  -12.8260   -6.7130 H   0  0  0  0  0
    6.7530  -11.1600   -6.0060 H   0  0  0  0  0
    6.7960  -12.5000   -4.8530 H   0  0  0  0  0
    8.7690   -8.9610   -3.7770 H   0  0  0  0  0
    7.9590   -8.9970   -5.3490 H   0  0  0  0  0
   10.3700   -9.2880   -5.6370 H   0  0  0  0  0
   10.4120  -10.6290   -4.4840 H   0  0  0  0  0
    5.8690   -9.6930   -4.3250 H   0  0  0  0  0
    6.7240   -9.4740   -2.7900 H   0  0  0  0  0
    5.2850  -12.0210   -3.6730 H   0  0  0  0  0
    4.6890  -10.8800   -2.4670 H   0  0  0  0  0
    5.6850  -12.8490   -1.3740 H   0  0  0  0  0
    6.6390  -11.4110   -0.9790 H   0  0  0  0  0
    7.7570  -12.6720   -3.2800 H   0  0  0  0  0
    8.2280  -14.1370    1.7490 H   0  0  0  0  0
    5.8610  -13.3760    0.4210 H   0  0  0  0  0
    6.8070  -11.9030    0.7000 H   0  0  0  0  0
    5.1620  -12.3140    2.5470 H   0  0  0  0  0
    5.8590  -13.8910    2.8530 H   0  0  0  0  0
    8.0450  -12.7930    3.4820 H   0  0  0  0  0
    7.2950  -11.2010    3.1970 H   0  0  0  0  0
    8.3700  -12.2610    5.7190 H   0  0  0  0  0
    7.6340  -10.6570    5.4260 H   0  0  0  0  0
    7.4430  -11.2860    7.8580 H   0  0  0  0  0
    6.5400  -12.7540    7.3780 H   0  0  0  0  0
    4.7140  -12.0090    8.5980 H   0  0  0  0  0
    5.6110  -10.5320    9.0630 H   0  0  0  0  0
    3.1270  -10.1310    9.1820 H   0  0  0  0  0
    3.0030  -10.5600    7.4490 H   0  0  0  0  0
    2.2940   -8.0180    8.6940 H   0  0  0  0  0
    2.1900   -8.4420    6.9660 H   0  0  0  0  0
    3.8150   -6.6340    6.4160 H   0  0  0  0  0
    3.9670   -6.2180    8.1100 H   0  0  0  0  0
    2.4380   -4.6430    6.9420 H   0  0  0  0  0
    1.3940   -5.9830    6.4340 H   0  0  0  0  0
    0.5530   -6.1370    8.5990 H   0  0  0  0  0
    1.2570   -2.8020   11.1010 H   0  0  0  0  0
   -0.1140   -3.5640   11.9460 H   0  0  0  0  0
    2.8140   -4.4950   12.1020 H   0  0  0  0  0
    2.9810   -3.1100   13.8370 H   0  0  0  0  0
    1.2860   -3.1940   14.2520 H   0  0  0  0  0
    1.1490   -6.3840   12.3100 H   0  0  0  0  0
    0.3200   -5.4970   13.6150 H   0  0  0  0  0
    3.6610   -7.1790   15.6260 H   0  0  0  0  0
    1.7090   -9.1600   16.5100 H   0  0  0  0  0
    3.2750   -8.7860   17.2550 H   0  0  0  0  0
    3.2630  -11.0660   16.2100 H   0  0  0  0  0
    2.8310  -10.3820   14.6570 H   0  0  0  0  0
    5.0120   -9.1090   14.6200 H   0  0  0  0  0
    5.4390   -9.8510   16.1840 H   0  0  0  0  0
    6.8330  -10.1390   13.6130 H   0  0  0  0  0
    7.2710  -10.8670   15.1870 H   0  0  0  0  0
    8.2240  -12.2240   13.2910 H   0  0  0  0  0
    6.5660  -12.4550   12.6600 H   0  0  0  0  0
    6.8030  -14.7470   12.9200 H   0  0  0  0  0
    8.4550  -14.5150   13.5680 H   0  0  0  0  0
    7.4890  -16.6960   14.3750 H   0  0  0  0  0
    6.1330  -15.7910   15.1130 H   0  0  0  0  0
    8.0750  -17.4880   16.4790 H   0  0  0  0  0
    6.7360  -16.5690   17.2130 H   0  0  0  0  0
    8.3680  -15.2480   18.5560 H   0  0  0  0  0
    9.7070  -16.1080   17.8250 H   0  0  0  0  0
    9.1970  -17.0130   20.0840 H   0  0  0  0  0
    7.5280  -17.3670   19.6010 H   0  0  0  0  0
    9.3160  -18.6890   17.8170 H   0  0  0  0  0
    8.0170  -20.1090   22.7120 H   0  0  0  0  0
    8.7380  -17.5310   21.8300 H   0  0  0  0  0
    7.1010  -17.8520   21.2360 H   0  0  0  0  0
    8.0320  -17.9540   24.1660 H   0  0  0  0  0
    7.0950  -16.6480   23.4390 H   0  0  0  0  0
    5.6290  -18.1790   24.7660 H   0  0  0  0  0
    5.2000  -18.2240   23.0490 H   0  0  0  0  0
    6.8030  -20.0160   25.7720 H   0  0  0  0  0
    8.0900  -19.8890   24.5660 H   0  0  0  0  0
    7.7330  -22.1870   23.8110 H   0  0  0  0  0
    7.9740  -22.1520   25.5620 H   0  0  0  0  0
    4.0470  -22.5690   24.1580 H   0  0  0  0  0
    5.3350  -22.4410   22.9520 H   0  0  0  0  0
    4.1630  -20.3050   23.1630 H   0  0  0  0  0
    4.4020  -20.2710   24.9150 H   0  0  0  0  0
    6.5560  -24.2740   23.9800 H   0  0  0  0  0
    5.1460  -24.4210   25.0410 H   0  0  0  0  0
    8.0380  -24.0840   25.9680 H   0  0  0  0  0
    7.1160  -25.5870   26.0330 H   0  0  0  0  0
    6.4470  -23.0410   27.5840 H   0  0  0  0  0
    7.1690  -24.5040   28.2730 H   0  0  0  0  0
    9.3150   -4.0980  -10.0550 H   0  0  0  0  0
   11.5490   -2.6670   -9.2940 H   0  0  0  0  0
    9.1660   -4.4660   -7.6260 H   0  0  0  0  0
    9.7010   -2.0530   -7.0750 H   0  0  0  0  0
   10.8650   -3.7130   -6.0540 H   0  0  0  0  0
   12.4620   -2.5140   -6.5920 H   0  0  0  0  0
  1  2  1  0  0  0
  1127  1  0  0  0
  2  3  1  0  0  0
  2 11  1  0  0  0
  2128  1  0  0  0
  3  4  1  0  0  0
  3  5  1  0  0  0
  3129  1  0  0  0
  4130  1  0  0  0
  5  6  1  0  0  0
  5  7  1  0  0  0
  5131  1  0  0  0
  6132  1  0  0  0
  7  8  1  0  0  0
  7 10  1  0  0  0
  7133  1  0  0  0
  8  9  1  0  0  0
  8134  1  0  0  0
  8135  1  0  0  0
  9136  1  0  0  0
 10 11  1  0  0  0
 11 12  1  0  0  0
 11137  1  0  0  0
 12 13  1  0  0  0
 13 14  1  0  0  0
 13 15  2  0  0  0
 14 21  2  0  0  0
 14138  1  0  0  0
 15 16  1  0  0  0
 15139  1  0  0  0
 16 17  1  0  0  0
 16 20  2  0  0  0
 17 18  1  0  0  0
 17 19  2  0  0  0
 20 21  1  0  0  0
 20140  1  0  0  0
 21 22  1  0  0  0
 22 23  2  0  0  0
 22 24  1  0  0  0
 24112  1  0  0  0
 24141  1  0  0  0
 25 26  1  0  0  0
 25142  1  0  0  0
 26 27  1  0  0  0
 26143  1  0  0  0
 26144  1  0  0  0
 27 28  1  0  0  0
 27125  1  0  0  0
 27145  1  0  0  0
 28 29  1  0  0  0
 29 30  1  0  0  0
 29121  1  0  0  0
 29146  1  0  0  0
 30 31  1  0  0  0
 31 32  2  0  0  0
 31 36  1  0  0  0
 32 33  1  0  0  0
 32147  1  0  0  0
 33 34  2  0  0  0
 33 40  1  0  0  0
 34 35  1  0  0  0
 34148  1  0  0  0
 35 36  2  0  0  0
 35 37  1  0  0  0
 36149  1  0  0  0
 37 38  1  0  0  0
 37 39  2  0  0  0
 40 41  2  0  0  0
 40 42  1  0  0  0
 42 43  1  0  0  0
 42150  1  0  0  0
 43 44  1  0  0  0
 43151  1  0  0  0
 43152  1  0  0  0
 44 45  1  0  0  0
 44153  1  0  0  0
 44154  1  0  0  0
 45 46  1  0  0  0
 45155  1  0  0  0
 45156  1  0  0  0
 46 47  1  0  0  0
 46 51  1  0  0  0
 47 48  1  0  0  0
 47157  1  0  0  0
 47158  1  0  0  0
 48 49  1  0  0  0
 48159  1  0  0  0
 48160  1  0  0  0
 49 50  1  0  0  0
 49 52  1  0  0  0
 50 51  1  0  0  0
 50161  1  0  0  0
 50162  1  0  0  0
 51163  1  0  0  0
 51164  1  0  0  0
 52 53  1  0  0  0
 52165  1  0  0  0
 52166  1  0  0  0
 53 54  1  0  0  0
 53167  1  0  0  0
 53168  1  0  0  0
 54 55  1  0  0  0
 54169  1  0  0  0
 54170  1  0  0  0
 55 56  1  0  0  0
 55171  1  0  0  0
 56 57  2  0  0  0
 56119  1  0  0  0
 57 58  1  0  0  0
 57117  1  0  0  0
 58 59  1  0  0  0
 58172  1  0  0  0
 59 60  1  0  0  0
 59173  1  0  0  0
 59174  1  0  0  0
 60 61  1  0  0  0
 60175  1  0  0  0
 60176  1  0  0  0
 61 62  1  0  0  0
 61177  1  0  0  0
 61178  1  0  0  0
 62 63  1  0  0  0
 63 64  1  0  0  0
 63179  1  0  0  0
 63180  1  0  0  0
 64 65  1  0  0  0
 64181  1  0  0  0
 64182  1  0  0  0
 65 66  1  0  0  0
 66 67  1  0  0  0
 66183  1  0  0  0
 66184  1  0  0  0
 67 68  1  0  0  0
 67185  1  0  0  0
 67186  1  0  0  0
 68 69  1  0  0  0
 69 70  1  0  0  0
 69187  1  0  0  0
 69188  1  0  0  0
 70 71  1  0  0  0
 70189  1  0  0  0
 70190  1  0  0  0
 71 72  1  0  0  0
 71191  1  0  0  0
 71192  1  0  0  0
 72 73  1  0  0  0
 72193  1  0  0  0
 73 74  2  0  0  0
 73 75  1  0  0  0
 75 76  1  0  0  0
 76 77  1  0  0  0
 76194  1  0  0  0
 76195  1  0  0  0
 77 78  1  0  0  0
 77 79  1  0  0  0
 77196  1  0  0  0
 78197  1  0  0  0
 78198  1  0  0  0
 79 80  1  0  0  0
 79199  1  0  0  0
 79200  1  0  0  0
 80 81  1  0  0  0
 81 82  2  0  0  0
 81 83  1  0  0  0
 83 84  1  0  0  0
 83201  1  0  0  0
 84 85  1  0  0  0
 84202  1  0  0  0
 84203  1  0  0  0
 85 86  1  0  0  0
 85204  1  0  0  0
 85205  1  0  0  0
 86 87  1  0  0  0
 86206  1  0  0  0
 86207  1  0  0  0
 87 88  1  0  0  0
 88 89  1  0  0  0
 88208  1  0  0  0
 88209  1  0  0  0
 89 90  1  0  0  0
 89210  1  0  0  0
 89211  1  0  0  0
 90 91  1  0  0  0
 91 92  1  0  0  0
 91212  1  0  0  0
 91213  1  0  0  0
 92 93  1  0  0  0
 92214  1  0  0  0
 92215  1  0  0  0
 93 94  1  0  0  0
 94 95  1  0  0  0
 94216  1  0  0  0
 94217  1  0  0  0
 95 96  1  0  0  0
 95218  1  0  0  0
 95219  1  0  0  0
 96 97  1  0  0  0
 96220  1  0  0  0
 96221  1  0  0  0
 97 98  1  0  0  0
 97222  1  0  0  0
 98 99  2  0  0  0
 98115  1  0  0  0
 99100  1  0  0  0
 99113  1  0  0  0
100101  1  0  0  0
100223  1  0  0  0
101102  1  0  0  0
101224  1  0  0  0
101225  1  0  0  0
102103  1  0  0  0
102226  1  0  0  0
102227  1  0  0  0
103104  1  0  0  0
103228  1  0  0  0
103229  1  0  0  0
104105  1  0  0  0
104109  1  0  0  0
105106  1  0  0  0
105230  1  0  0  0
105231  1  0  0  0
106107  1  0  0  0
106232  1  0  0  0
106233  1  0  0  0
107108  1  0  0  0
107110  1  0  0  0
108109  1  0  0  0
108234  1  0  0  0
108235  1  0  0  0
109236  1  0  0  0
109237  1  0  0  0
110111  1  0  0  0
110238  1  0  0  0
110239  1  0  0  0
111112  1  0  0  0
111240  1  0  0  0
111241  1  0  0  0
112242  1  0  0  0
112243  1  0  0  0
113114  2  0  0  0
113115  1  0  0  0
115116  2  0  0  0
117118  2  0  0  0
117119  1  0  0  0
119120  2  0  0  0
121122  1  0  0  0
121123  1  0  0  0
121244  1  0  0  0
122245  1  0  0  0
123124  1  0  0  0
123125  1  0  0  0
123246  1  0  0  0
124247  1  0  0  0
125126  1  0  0  0
125248  1  0  0  0
126249  1  0  0  0
M  CHG  1  17   1
M  CHG  1  18  -1
M  CHG  1  37   1
M  CHG  1  38  -1
M  END
$$$$
