BVD
  CCTOOLS-0919241035

 32 33  0  0  1  0  0  0  0  0999 V2000
   -1.4050    2.2850    5.4030 O   0  0  0  0  0
   -0.4440    1.2290    5.4530 C   0  0  0  0  0
   -0.8720    0.1050    4.5070 C   0  0  0  0  0
   -0.8820    0.5690    3.1390 O   0  0  0  0  0
   -0.7840   -0.5940    2.3010 C   0  0  0  0  0
   -0.0160   -0.2760    1.0950 N   0  0  0  0  0
   -0.5950   -0.4450   -0.1290 C   0  0  0  0  0
    1.2400    0.1800    1.2180 C   0  0  0  0  0
    1.7140    0.3150    2.3290 O   0  0  0  0  0
    1.9930    0.4840    0.1460 N   0  0  0  0  0
    1.4930    0.3440   -1.0990 C   0  0  0  0  0
    2.1680    0.6220   -2.0740 O   0  0  0  0  0
    0.1170   -0.1490   -1.2560 C   0  0  0  0  0
   -0.4780   -0.3190   -2.5960 C   0  0  0  0  0
    0.1870    0.0770   -3.6740 C   0  0  0  0  0
   -0.6310   -0.0080   -5.3760 BR  0  0  0  0  0
   -0.0600   -1.6850    3.1140 C   0  0  0  0  0
    0.1800   -1.0310    4.4990 C   0  0  0  0  0
   -0.0610   -1.9660    5.5530 O   0  0  0  0  0
   -1.0980    2.9710    6.0120 H   0  0  0  0  0
    0.5300    1.6090    5.1480 H   0  0  0  0  0
   -0.3810    0.8430    6.4710 H   0  0  0  0  0
   -1.8510   -0.2800    4.7890 H   0  0  0  0  0
   -1.7810   -0.9380    2.0260 H   0  0  0  0  0
   -1.6080   -0.8100   -0.2070 H   0  0  0  0  0
    2.8990    0.8080    0.2690 H   0  0  0  0  0
   -1.4550   -0.7670   -2.7000 H   0  0  0  0  0
    1.1970    0.4490   -3.5780 H   0  0  0  0  0
   -0.6920   -2.5670    3.2170 H   0  0  0  0  0
    0.8870   -1.9460    2.6440 H   0  0  0  0  0
    1.1890   -0.6240    4.5660 H   0  0  0  0  0
    0.5680   -2.6900    5.4340 H   0  0  0  0  0
  1  2  1  0  0  0
  1 20  1  0  0  0
  2  3  1  0  0  0
  2 21  1  0  0  0
  2 22  1  0  0  0
  3  4  1  0  0  0
  3 18  1  0  0  0
  3 23  1  0  0  0
  4  5  1  0  0  0
  5  6  1  0  0  0
  5 17  1  0  0  0
  5 24  1  0  0  0
  6  7  1  0  0  0
  6  8  1  0  0  0
  7 13  2  0  0  0
  7 25  1  0  0  0
  8  9  2  0  0  0
  8 10  1  0  0  0
 10 11  1  0  0  0
 10 26  1  0  0  0
 11 12  2  0  0  0
 11 13  1  0  0  0
 13 14  1  0  0  0
 14 15  2  0  0  0
 14 27  1  0  0  0
 15 16  1  0  0  0
 15 28  1  0  0  0
 17 18  1  0  0  0
 17 29  1  0  0  0
 17 30  1  0  0  0
 18 19  1  0  0  0
 18 31  1  0  0  0
 19 32  1  0  0  0
M  END
$$$$
