BXY
  CCTOOLS-0919241035

 20 20  0  0  1  0  0  0  0  0999 V2000
    3.1480   -0.5700    0.2590 O   0  0  0  0  0
    2.0280    0.1870    0.7230 C   0  0  0  0  0
    0.9970    0.3130   -0.4010 C   0  0  0  0  0
   -0.1610    1.2250    0.0500 C   0  0  0  0  0
   -0.3270    2.3110   -0.8630 O   0  0  0  0  0
   -1.4030    0.3010    0.0250 C   0  0  0  0  0
   -2.2400    0.5430    1.1580 O   0  0  0  0  0
   -0.7610   -1.1080    0.1010 C   0  0  0  0  0
    0.4380   -0.9770   -0.6980 O   0  0  0  0  0
    3.8420   -0.6900    0.9210 H   0  0  0  0  0
    1.5750   -0.3200    1.5760 H   0  0  0  0  0
    2.3600    1.1800    1.0250 H   0  0  0  0  0
    1.4690    0.7270   -1.2910 H   0  0  0  0  0
    0.0190    1.5990    1.0580 H   0  0  0  0  0
   -1.0420    2.9170   -0.6280 H   0  0  0  0  0
   -1.9610    0.4250   -0.9020 H   0  0  0  0  0
   -3.0320   -0.0120    1.1870 H   0  0  0  0  0
   -1.6350   -2.0890   -0.4600 O   0  0  0  0  0
   -0.5100   -1.3600    1.1320 H   0  0  0  0  0
   -1.2820   -2.9890   -0.4370 H   0  0  0  0  0
  1  2  1  0  0  0
  1 10  1  0  0  0
  2 11  1  0  0  0
  2 12  1  0  0  0
  3  2  1  0  0  0
  3 13  1  0  0  0
  4  3  1  0  0  0
  4  5  1  0  0  0
  4 14  1  0  0  0
  5 15  1  0  0  0
  6  4  1  0  0  0
  6 16  1  0  0  0
  7  6  1  0  0  0
  7 17  1  0  0  0
  8  6  1  0  0  0
  8  9  1  0  0  0
  8 18  1  0  0  0
  8 19  1  0  0  0
  9  3  1  0  0  0
 18 20  1  0  0  0
M  END
$$$$
