BZI
  CCTOOLS-0919241036

 15 16  0  0  0  0  0  0  0  0999 V2000
   -1.0530    0.0010    1.5870 N   0  0  0  0  0
    0.0930    0.0000    2.3190 C   0  0  0  0  0
    1.1270    0.0000    1.5310 N   0  0  0  0  0
    0.7150    0.0000    0.2370 C   0  0  0  0  0
    1.3860    0.0000   -0.9870 C   0  0  0  0  0
    0.6740    0.0000   -2.1540 C   0  0  0  0  0
   -0.7120    0.0000   -2.1360 C   0  0  0  0  0
   -1.3960    0.0010   -0.9390 C   0  0  0  0  0
   -0.6890   -0.0050    0.2550 C   0  0  0  0  0
   -1.9580    0.0010    1.9360 H   0  0  0  0  0
    0.1380    0.0000    3.3980 H   0  0  0  0  0
    2.4660   -0.0000   -1.0130 H   0  0  0  0  0
    1.1970    0.0000   -3.0990 H   0  0  0  0  0
   -1.2600    0.0010   -3.0670 H   0  0  0  0  0
   -2.4760    0.0010   -0.9310 H   0  0  0  0  0
  1  2  1  0  0  0
  1  9  1  0  0  0
  1 10  1  0  0  0
  2  3  2  0  0  0
  2 11  1  0  0  0
  3  4  1  0  0  0
  4  5  2  0  0  0
  4  9  1  0  0  0
  5  6  1  0  0  0
  5 12  1  0  0  0
  6  7  2  0  0  0
  6 13  1  0  0  0
  7  8  1  0  0  0
  7 14  1  0  0  0
  8  9  2  0  0  0
  8 15  1  0  0  0
M  END
$$$$
