C03
  CCTOOLS-0919241036

 62 66  0  0  0  0  0  0  0  0999 V2000
   -3.7970  -12.0530   -0.9360 C   0  0  0  0  0
   -5.1190  -12.5110   -0.8730 C   0  0  0  0  0
   -6.1050  -11.8710   -1.6510 C   0  0  0  0  0
   -5.7300  -10.7980   -2.4620 C   0  0  0  0  0
   -4.4130  -10.3300   -2.5350 C   0  0  0  0  0
   -3.4520  -10.9800   -1.7550 C   0  0  0  0  0
   -7.5030  -12.0630   -1.8310 C   0  0  0  0  0
   -7.9420  -11.1190   -2.7310 C   0  0  0  0  0
   -6.8650  -10.3610   -3.1060 N   0  0  0  0  0
   -8.2940  -13.0790   -1.1690 C   0  0  0  0  0
   -9.2970  -10.8700   -3.2690 C   0  0  0  0  0
   -6.9130   -9.2560   -4.0410 C   0  0  0  0  0
   -2.1570  -10.5560   -1.7980 O   0  0  0  0  0
   -1.5570  -10.1050   -0.5900 C   0  0  0  0  0
   -2.4770   -9.5640    0.2380 F   0  0  0  0  0
   -0.6500   -9.1480   -0.8870 F   0  0  0  0  0
   -0.9100  -11.1110    0.0380 F   0  0  0  0  0
   -7.1900   -7.9540   -3.3390 C   0  0  0  0  0
   -7.3560   -7.9800   -1.9590 C   0  0  0  0  0
   -7.6150   -6.7930   -1.2740 C   0  0  0  0  0
   -7.7060   -5.5890   -1.9730 C   0  0  0  0  0
   -7.5380   -5.5730   -3.3580 C   0  0  0  0  0
   -7.2790   -6.7600   -4.0430 C   0  0  0  0  0
   -7.0790   -6.7000   -5.7560 CL  0  0  0  0  0
   -7.7790   -6.8090    0.0770 O   0  0  0  0  0
   -8.3220   -7.9970    0.6520 C   0  0  0  0  0
   -9.0820   -7.6060    1.9070 C   0  0  0  0  0
   -7.1810   -8.9400    0.9710 C   0  0  0  0  0
   -5.9960   -8.6850    0.7990 O   0  0  0  0  0
   -7.6150  -10.1130    1.4990 O   0  0  0  0  0
   -8.8940  -12.8720    0.0070 N   0  0  0  0  0
   -9.5430  -14.0660    0.3010 O   0  0  0  0  0
   -9.3190  -14.9600   -0.7000 C   0  0  0  0  0
   -8.5230  -14.3750   -1.6690 C   0  0  0  0  0
   -9.8040  -16.2630   -0.7650 C   0  0  0  0  0
   -9.4400  -16.9970   -1.8990 C   0  0  0  0  0
   -8.6370  -16.4400   -2.8990 C   0  0  0  0  0
   -8.1660  -15.1230   -2.8000 C   0  0  0  0  0
   -9.8790  -18.2820   -2.0300 O   0  0  0  0  0
  -10.6940  -18.7970   -0.9800 C   0  0  0  0  0
   -3.0370  -12.5470   -0.3350 H   0  0  0  0  0
   -5.3690  -13.3500   -0.2310 H   0  0  0  0  0
   -4.1430   -9.4950   -3.1740 H   0  0  0  0  0
   -9.5660  -11.6240   -4.0250 H   0  0  0  0  0
  -10.0640  -10.8960   -2.4780 H   0  0  0  0  0
   -9.3750   -9.8760   -3.7400 H   0  0  0  0  0
   -7.6830   -9.4740   -4.7910 H   0  0  0  0  0
   -5.9570   -9.2210   -4.5780 H   0  0  0  0  0
   -7.2860   -8.9160   -1.4100 H   0  0  0  0  0
   -7.9070   -4.6620   -1.4440 H   0  0  0  0  0
   -7.6130   -4.6260   -3.8870 H   0  0  0  0  0
   -8.9850   -8.4580   -0.0870 H   0  0  0  0  0
   -8.6490   -8.0880    2.7920 H   0  0  0  0  0
  -10.1240   -7.9360    1.8440 H   0  0  0  0  0
   -9.0680   -6.5240    2.0700 H   0  0  0  0  0
   -6.9090  -10.7510    1.7360 H   0  0  0  0  0
  -10.4250  -16.6830    0.0170 H   0  0  0  0  0
   -8.3680  -17.0320   -3.7710 H   0  0  0  0  0
   -7.5420  -14.7050   -3.5850 H   0  0  0  0  0
  -11.6780  -19.0600   -1.3770 H   0  0  0  0  0
  -10.7960  -18.0440   -0.1940 H   0  0  0  0  0
  -10.2200  -19.6900   -0.5670 H   0  0  0  0  0
  1  2  2  0  0  0
  1  6  1  0  0  0
  1 41  1  0  0  0
  2  3  1  0  0  0
  2 42  1  0  0  0
  3  7  1  0  0  0
  3  4  2  0  0  0
  4  9  1  0  0  0
  4  5  1  0  0  0
  5  6  2  0  0  0
  5 43  1  0  0  0
  6 13  1  0  0  0
  7  8  2  0  0  0
  7 10  1  0  0  0
  8 11  1  0  0  0
  8  9  1  0  0  0
  9 12  1  0  0  0
 10 31  2  0  0  0
 10 34  1  0  0  0
 11 44  1  0  0  0
 11 45  1  0  0  0
 11 46  1  0  0  0
 12 18  1  0  0  0
 12 47  1  0  0  0
 12 48  1  0  0  0
 13 14  1  0  0  0
 14 16  1  0  0  0
 14 15  1  0  0  0
 14 17  1  0  0  0
 18 23  2  0  0  0
 18 19  1  0  0  0
 19 20  2  0  0  0
 19 49  1  0  0  0
 20 21  1  0  0  0
 20 25  1  0  0  0
 21 22  2  0  0  0
 21 50  1  0  0  0
 22 23  1  0  0  0
 22 51  1  0  0  0
 23 24  1  0  0  0
 25 26  1  0  0  0
 26 28  1  0  0  0
 26 27  1  0  0  0
 26 52  1  0  0  0
 27 53  1  0  0  0
 27 54  1  0  0  0
 27 55  1  0  0  0
 28 29  2  0  0  0
 28 30  1  0  0  0
 30 56  1  0  0  0
 31 32  1  0  0  0
 32 33  1  0  0  0
 33 34  2  0  0  0
 33 35  1  0  0  0
 34 38  1  0  0  0
 35 36  2  0  0  0
 35 57  1  0  0  0
 36 37  1  0  0  0
 36 39  1  0  0  0
 37 38  2  0  0  0
 37 58  1  0  0  0
 38 59  1  0  0  0
 39 40  1  0  0  0
 40 60  1  0  0  0
 40 61  1  0  0  0
 40 62  1  0  0  0
M  END
$$$$
