C09
  CCTOOLS-0919241036

 32 34  0  0  0  0  0  0  0  0999 V2000
    1.7660    3.3540    0.0010 N   0  0  0  0  0
    1.6880    1.9720    0.0010 C   0  0  0  0  0
    0.4170    1.3540    0.0000 C   0  0  0  0  0
   -0.8570    1.8160    0.0010 N   0  0  0  0  0
   -1.6840    0.8100    0.0010 C   0  0  0  0  0
   -3.1870    0.9250    0.0010 C   0  0  0  0  0
   -3.7640   -0.3820   -0.0000 O   0  0  0  0  0
   -5.1930   -0.3870   -0.0000 C   0  0  0  0  0
   -5.6990   -1.8310   -0.0010 C   0  0  0  0  0
   -0.9880   -0.3590    0.0000 N   0  0  0  0  0
    0.3420   -0.0420    0.0000 C   0  0  0  0  0
    1.5900   -0.7930   -0.0000 C   0  0  0  0  0
    1.6100   -2.1910    0.0000 C   0  0  0  0  0
    2.8050   -2.8500    0.0010 C   0  0  0  0  0
    4.0040   -2.1460    0.0010 C   0  0  0  0  0
    4.0180   -0.7830    0.0010 C   0  0  0  0  0
    2.8090   -0.0720    0.0000 C   0  0  0  0  0
    2.7980    1.2700   -0.0040 N   0  0  0  0  0
    0.9540    3.8850    0.0000 H   0  0  0  0  0
    2.6320    3.7910    0.0050 H   0  0  0  0  0
   -3.5100    1.4640    0.8910 H   0  0  0  0  0
   -3.5100    1.4650   -0.8890 H   0  0  0  0  0
   -5.5580    0.1260    0.8900 H   0  0  0  0  0
   -5.5580    0.1260   -0.8900 H   0  0  0  0  0
   -5.3340   -2.3440    0.8890 H   0  0  0  0  0
   -6.7890   -1.8340   -0.0010 H   0  0  0  0  0
   -5.3340   -2.3430   -0.8910 H   0  0  0  0  0
    0.6830   -2.7470    0.0000 H   0  0  0  0  0
    2.8190   -3.9300    0.0010 H   0  0  0  0  0
    4.9380   -2.6880    0.0010 H   0  0  0  0  0
    4.9580   -0.2520    0.0000 H   0  0  0  0  0
   -1.3660   -1.2530    0.0010 H   0  0  0  0  0
  1 19  1  0  0  0
  1 20  1  0  0  0
  2  3  1  0  0  0
  2  1  1  0  0  0
  3  4  1  0  0  0
  5  4  2  0  0  0
  5  6  1  0  0  0
  6 21  1  0  0  0
  6 22  1  0  0  0
  7  6  1  0  0  0
  8  7  1  0  0  0
  8 23  1  0  0  0
  8 24  1  0  0  0
  9  8  1  0  0  0
  9 25  1  0  0  0
  9 26  1  0  0  0
  9 27  1  0  0  0
 10  5  1  0  0  0
 10 32  1  0  0  0
 11 10  1  0  0  0
 11  3  2  0  0  0
 12 11  1  0  0  0
 13 12  2  0  0  0
 13 28  1  0  0  0
 14 13  1  0  0  0
 14 29  1  0  0  0
 15 14  2  0  0  0
 15 16  1  0  0  0
 15 30  1  0  0  0
 16 17  2  0  0  0
 16 31  1  0  0  0
 17 12  1  0  0  0
 17 18  1  0  0  0
 18  2  2  0  0  0
M  END
$$$$
