C1Q
  CCTOOLS-0919241036

121122  0  0  1  0  0  0  0  0999 V2000
    2.1130    1.3210    2.2020 O   0  0  0  0  0
    1.7290    1.2680    1.0530 C   0  0  0  0  0
    2.4780    0.4350    0.0450 C   0  0  0  0  0
    3.6740   -0.2340    0.7250 C   0  0  0  0  0
    4.4350   -1.0800   -0.2990 C   0  0  0  0  0
    5.6300   -1.7490    0.3810 C   0  0  0  0  0
    6.3910   -2.5950   -0.6430 C   0  0  0  0  0
    7.5870   -3.2640    0.0370 C   0  0  0  0  0
    8.3480   -4.1100   -0.9860 C   0  0  0  0  0
    9.5440   -4.7800   -0.3060 C   0  0  0  0  0
   10.3050   -5.6250   -1.3300 C   0  0  0  0  0
   11.4830   -6.2850   -0.6600 C   0  0  0  0  0
   11.3390   -7.5320   -0.0810 C   0  0  0  0  0
   12.4200   -8.1370    0.5330 C   0  0  0  0  0
   13.6440   -7.4950    0.5680 C   0  0  0  0  0
   13.7870   -6.2480   -0.0120 C   0  0  0  0  0
   12.7080   -5.6450   -0.6300 C   0  0  0  0  0
    0.6280    1.9500    0.6790 N   0  0  0  0  0
   -0.1040    2.7550    1.6600 C   0  0  0  0  0
    0.5390    4.1390    1.7660 C   0  0  0  0  0
    0.4000    4.8250    0.5200 O   0  0  0  0  0
    0.9700    6.1350    0.5110 C   0  0  0  0  0
    0.5520    6.8650   -0.7680 C   0  0  0  0  0
   -0.8740    6.9160   -0.8450 O   0  0  0  0  0
    1.1040    6.1100   -1.9810 C   0  0  0  0  0
    0.7810    6.8250   -3.1760 O   0  0  0  0  0
    2.6250    5.9950   -1.8480 C   0  0  0  0  0
    3.2060    7.3010   -1.8620 O   0  0  0  0  0
    2.9630    5.2990   -0.5280 C   0  0  0  0  0
    4.4830    5.2340   -0.3590 C   0  0  0  0  0
    4.8000    4.4820    0.8140 O   0  0  0  0  0
    2.3950    6.0350    0.5570 O   0  0  0  0  0
   -1.5610    2.9010    1.2150 C   0  0  0  0  0
   -2.2430    3.7900    2.1020 O   0  0  0  0  0
   -2.2420    1.5320    1.2420 C   0  0  0  0  0
   -1.5600    0.6430    0.3540 O   0  0  0  0  0
   -3.6990    1.6780    0.7960 C   0  0  0  0  0
   -4.4140    0.3330    0.9420 C   0  0  0  0  0
   -5.8710    0.4800    0.4960 C   0  0  0  0  0
   -6.5860   -0.8650    0.6410 C   0  0  0  0  0
   -8.0420   -0.7180    0.1960 C   0  0  0  0  0
   -8.7580   -2.0630    0.3410 C   0  0  0  0  0
  -10.2140   -1.9160   -0.1040 C   0  0  0  0  0
  -10.9300   -3.2610    0.0410 C   0  0  0  0  0
  -12.3860   -3.1140   -0.4040 C   0  0  0  0  0
  -13.1010   -4.4590   -0.2590 C   0  0  0  0  0
  -14.5580   -4.3130   -0.7040 C   0  0  0  0  0
  -15.2730   -5.6570   -0.5590 C   0  0  0  0  0
  -16.7300   -5.5110   -1.0040 C   0  0  0  0  0
  -17.4450   -6.8550   -0.8590 C   0  0  0  0  0
    1.8150   -0.3290   -0.3600 H   0  0  0  0  0
    2.8310    1.0750   -0.7640 H   0  0  0  0  0
    4.3370    0.5300    1.1290 H   0  0  0  0  0
    3.3210   -0.8740    1.5330 H   0  0  0  0  0
    3.7710   -1.8440   -0.7030 H   0  0  0  0  0
    4.7880   -0.4400   -1.1080 H   0  0  0  0  0
    6.2940   -0.9850    0.7850 H   0  0  0  0  0
    5.2770   -2.3890    1.1900 H   0  0  0  0  0
    5.7280   -3.3590   -1.0470 H   0  0  0  0  0
    6.7440   -1.9550   -1.4520 H   0  0  0  0  0
    8.2500   -2.5000    0.4420 H   0  0  0  0  0
    7.2340   -3.9040    0.8460 H   0  0  0  0  0
    7.6850   -4.8740   -1.3910 H   0  0  0  0  0
    8.7010   -3.4700   -1.7950 H   0  0  0  0  0
   10.2070   -4.0150    0.0980 H   0  0  0  0  0
    9.1910   -5.4190    0.5020 H   0  0  0  0  0
    9.6420   -6.3900   -1.7350 H   0  0  0  0  0
   10.6580   -4.9850   -2.1390 H   0  0  0  0  0
   10.3830   -8.0330   -0.1090 H   0  0  0  0  0
   12.3080   -9.1110    0.9860 H   0  0  0  0  0
   14.4880   -7.9680    1.0480 H   0  0  0  0  0
   14.7430   -5.7470    0.0150 H   0  0  0  0  0
   12.8210   -4.6730   -1.0870 H   0  0  0  0  0
    0.3200    1.9080   -0.2400 H   0  0  0  0  0
   -0.0690    2.2630    2.6320 H   0  0  0  0  0
    0.0440    4.7100    2.5520 H   0  0  0  0  0
    1.5960    4.0310    2.0060 H   0  0  0  0  0
    0.6160    6.6910    1.3790 H   0  0  0  0  0
    0.9520    7.8790   -0.7560 H   0  0  0  0  0
   -1.2920    7.3760   -0.1040 H   0  0  0  0  0
    0.6640    5.1140   -2.0220 H   0  0  0  0  0
   -0.1690    6.9410   -3.3200 H   0  0  0  0  0
    3.0200    5.4120   -2.6800 H   0  0  0  0  0
    3.0270    7.8020   -2.6690 H   0  0  0  0  0
    2.5550    4.2880   -0.5350 H   0  0  0  0  0
    4.9240    4.7500   -1.2310 H   0  0  0  0  0
    4.8810    6.2440   -0.2630 H   0  0  0  0  0
    5.7490    4.4000    0.9830 H   0  0  0  0  0
   -1.5920    3.3030    0.2030 H   0  0  0  0  0
   -2.1890    3.5340    3.0330 H   0  0  0  0  0
   -2.2110    1.1290    2.2540 H   0  0  0  0  0
   -1.5490    0.9380   -0.5660 H   0  0  0  0  0
   -4.1950    2.4230    1.4180 H   0  0  0  0  0
   -3.7300    1.9960   -0.2460 H   0  0  0  0  0
   -3.9170   -0.4110    0.3200 H   0  0  0  0  0
   -4.3830    0.0160    1.9840 H   0  0  0  0  0
   -6.3670    1.2250    1.1180 H   0  0  0  0  0
   -5.9020    0.7980   -0.5460 H   0  0  0  0  0
   -6.0890   -1.6100    0.0200 H   0  0  0  0  0
   -6.5550   -1.1820    1.6840 H   0  0  0  0  0
   -8.5390    0.0270    0.8180 H   0  0  0  0  0
   -8.0740   -0.4010   -0.8460 H   0  0  0  0  0
   -8.2610   -2.8080   -0.2800 H   0  0  0  0  0
   -8.7270   -2.3800    1.3840 H   0  0  0  0  0
  -10.7110   -1.1710    0.5180 H   0  0  0  0  0
  -10.2450   -1.5990   -1.1460 H   0  0  0  0  0
  -10.4330   -4.0060   -0.5800 H   0  0  0  0  0
  -10.8980   -3.5790    1.0840 H   0  0  0  0  0
  -12.8830   -2.3700    0.2180 H   0  0  0  0  0
  -12.4170   -2.7970   -1.4460 H   0  0  0  0  0
  -12.6050   -5.2040   -0.8810 H   0  0  0  0  0
  -13.0700   -4.7770    0.7840 H   0  0  0  0  0
  -15.0550   -3.5680   -0.0820 H   0  0  0  0  0
  -14.5890   -3.9950   -1.7460 H   0  0  0  0  0
  -14.7760   -6.4020   -1.1810 H   0  0  0  0  0
  -15.2420   -5.9750    0.4840 H   0  0  0  0  0
  -17.2260   -4.7660   -0.3820 H   0  0  0  0  0
  -16.7610   -5.1930   -2.0460 H   0  0  0  0  0
  -16.9480   -7.6000   -1.4800 H   0  0  0  0  0
  -17.4140   -7.1730    0.1840 H   0  0  0  0  0
  -18.4830   -6.7510   -1.1760 H   0  0  0  0  0
  1  2  2  0  0  0
  2  3  1  0  0  0
  2 18  1  0  0  0
  3  4  1  0  0  0
  3 51  1  0  0  0
  3 52  1  0  0  0
  4  5  1  0  0  0
  4 53  1  0  0  0
  4 54  1  0  0  0
  5  6  1  0  0  0
  5 55  1  0  0  0
  5 56  1  0  0  0
  6  7  1  0  0  0
  6 57  1  0  0  0
  6 58  1  0  0  0
  7  8  1  0  0  0
  7 59  1  0  0  0
  7 60  1  0  0  0
  8  9  1  0  0  0
  8 61  1  0  0  0
  8 62  1  0  0  0
  9 10  1  0  0  0
  9 63  1  0  0  0
  9 64  1  0  0  0
 10 11  1  0  0  0
 10 65  1  0  0  0
 10 66  1  0  0  0
 11 12  1  0  0  0
 11 67  1  0  0  0
 11 68  1  0  0  0
 12 13  2  0  0  0
 12 17  1  0  0  0
 13 14  1  0  0  0
 13 69  1  0  0  0
 14 15  2  0  0  0
 14 70  1  0  0  0
 15 16  1  0  0  0
 15 71  1  0  0  0
 16 17  2  0  0  0
 16 72  1  0  0  0
 17 73  1  0  0  0
 18 19  1  0  0  0
 18 74  1  0  0  0
 19 20  1  0  0  0
 19 33  1  0  0  0
 19 75  1  0  0  0
 20 21  1  0  0  0
 20 76  1  0  0  0
 20 77  1  0  0  0
 21 22  1  0  0  0
 22 23  1  0  0  0
 22 32  1  0  0  0
 22 78  1  0  0  0
 23 24  1  0  0  0
 23 25  1  0  0  0
 23 79  1  0  0  0
 24 80  1  0  0  0
 25 26  1  0  0  0
 25 27  1  0  0  0
 25 81  1  0  0  0
 26 82  1  0  0  0
 27 28  1  0  0  0
 27 29  1  0  0  0
 27 83  1  0  0  0
 28 84  1  0  0  0
 29 30  1  0  0  0
 29 32  1  0  0  0
 29 85  1  0  0  0
 30 31  1  0  0  0
 30 86  1  0  0  0
 30 87  1  0  0  0
 31 88  1  0  0  0
 33 34  1  0  0  0
 33 35  1  0  0  0
 33 89  1  0  0  0
 34 90  1  0  0  0
 35 36  1  0  0  0
 35 37  1  0  0  0
 35 91  1  0  0  0
 36 92  1  0  0  0
 37 38  1  0  0  0
 37 93  1  0  0  0
 37 94  1  0  0  0
 38 39  1  0  0  0
 38 95  1  0  0  0
 38 96  1  0  0  0
 39 40  1  0  0  0
 39 97  1  0  0  0
 39 98  1  0  0  0
 40 41  1  0  0  0
 40 99  1  0  0  0
 40100  1  0  0  0
 41 42  1  0  0  0
 41101  1  0  0  0
 41102  1  0  0  0
 42 43  1  0  0  0
 42103  1  0  0  0
 42104  1  0  0  0
 43 44  1  0  0  0
 43105  1  0  0  0
 43106  1  0  0  0
 44 45  1  0  0  0
 44107  1  0  0  0
 44108  1  0  0  0
 45 46  1  0  0  0
 45109  1  0  0  0
 45110  1  0  0  0
 46 47  1  0  0  0
 46111  1  0  0  0
 46112  1  0  0  0
 47 48  1  0  0  0
 47113  1  0  0  0
 47114  1  0  0  0
 48 49  1  0  0  0
 48115  1  0  0  0
 48116  1  0  0  0
 49 50  1  0  0  0
 49117  1  0  0  0
 49118  1  0  0  0
 50119  1  0  0  0
 50120  1  0  0  0
 50121  1  0  0  0
M  END
$$$$
