C3F
  CCTOOLS-0919241036

 42 44  0  0  0  0  0  0  0  0999 V2000
   -4.1660    2.6270    0.8650 O   0  0  0  0  0
   -3.0300    2.5550    0.4370 C   0  0  0  0  0
   -2.3050    3.6660    0.1710 N   0  0  0  0  0
   -1.0530    3.5850   -0.3010 C   0  0  0  0  0
   -0.4560    4.6240   -0.5200 O   0  0  0  0  0
   -0.4220    2.4390   -0.5460 N   0  0  0  0  0
   -2.3790    1.2490    0.1910 C   0  0  0  0  0
   -1.0030    1.2700   -0.3340 C   0  0  0  0  0
   -2.9860    0.1130    0.4200 N   0  0  0  0  0
   -2.3660   -1.0520    0.1870 C   0  0  0  0  0
   -3.0370   -2.2650    0.4400 C   0  0  0  0  0
   -2.4100   -3.4510    0.2040 C   0  0  0  0  0
   -3.1340   -4.7440    0.4770 C   0  0  0  0  0
   -1.1080   -3.4810   -0.2870 C   0  0  0  0  0
   -0.4370   -4.8070   -0.5400 C   0  0  0  0  0
   -0.4280   -2.3120   -0.5440 C   0  0  0  0  0
   -1.0440   -1.0850   -0.3120 C   0  0  0  0  0
   -0.3710    0.0880   -0.5780 N   0  0  0  0  0
    0.9990    0.0640   -1.0950 C   0  0  0  0  0
    1.9850    0.0490    0.0750 C   0  0  0  0  0
    3.4170    0.0240   -0.4650 C   0  0  0  0  0
    5.6870   -0.0130    0.4180 C   0  0  0  0  0
    4.3610    0.0090    0.6550 N   0  0  0  0  0
    6.5550   -0.0270    1.4470 O   0  0  0  0  0
    6.1000   -0.0210   -0.7250 O   0  0  0  0  0
   -2.6990    4.5390    0.3240 H   0  0  0  0  0
   -4.0480   -2.2550    0.8210 H   0  0  0  0  0
   -3.6710   -5.0560   -0.4190 H   0  0  0  0  0
   -2.4130   -5.5120    0.7540 H   0  0  0  0  0
   -3.8420   -4.5980    1.2920 H   0  0  0  0  0
   -0.6380   -5.1260   -1.5620 H   0  0  0  0  0
    0.6380   -4.7030   -0.3960 H   0  0  0  0  0
   -0.8260   -5.5500    0.1560 H   0  0  0  0  0
    0.5820   -2.3470   -0.9250 H   0  0  0  0  0
    1.1430   -0.8290   -1.7040 H   0  0  0  0  0
    1.1730    0.9510   -1.7050 H   0  0  0  0  0
    1.8420    0.9420    0.6830 H   0  0  0  0  0
    1.8120   -0.8380    0.6840 H   0  0  0  0  0
    3.5600   -0.8690   -1.0730 H   0  0  0  0  0
    3.5900    0.9110   -1.0750 H   0  0  0  0  0
    4.0310    0.0160    1.5670 H   0  0  0  0  0
    7.4970   -0.0430    1.2270 H   0  0  0  0  0
  1  2  2  0  0  0
  2  3  1  0  0  0
  2  7  1  0  0  0
  3  4  1  0  0  0
  3 26  1  0  0  0
  4  5  2  0  0  0
  4  6  1  0  0  0
  6  8  2  0  0  0
  7  8  1  0  0  0
  7  9  2  0  0  0
  8 18  1  0  0  0
  9 10  1  0  0  0
 10 11  1  0  0  0
 10 17  2  0  0  0
 11 12  2  0  0  0
 11 27  1  0  0  0
 12 13  1  0  0  0
 12 14  1  0  0  0
 13 28  1  0  0  0
 13 29  1  0  0  0
 13 30  1  0  0  0
 14 15  1  0  0  0
 14 16  2  0  0  0
 15 31  1  0  0  0
 15 32  1  0  0  0
 15 33  1  0  0  0
 16 17  1  0  0  0
 16 34  1  0  0  0
 17 18  1  0  0  0
 18 19  1  0  0  0
 19 20  1  0  0  0
 19 35  1  0  0  0
 19 36  1  0  0  0
 20 21  1  0  0  0
 20 37  1  0  0  0
 20 38  1  0  0  0
 21 23  1  0  0  0
 21 39  1  0  0  0
 21 40  1  0  0  0
 22 25  2  0  0  0
 22 24  1  0  0  0
 22 23  1  0  0  0
 23 41  1  0  0  0
 42 24  1  0  0  0
M  END
$$$$
