C6Q
  CCTOOLS-0919241036

109110  0  0  1  0  0  0  0  0999 V2000
   -2.1210    0.6190   -0.5510 N   0  0  0  0  0
   12.8450   -1.7930    0.2640 C   0  0  0  0  0
   11.7970   -0.6810    0.3410 C   0  0  0  0  0
   16.6370   -1.7730    0.9280 C   0  0  0  0  0
   15.2650   -2.3390    0.5580 C   0  0  0  0  0
   14.2170   -1.2270    0.6350 C   0  0  0  0  0
   -3.4140   -0.5070   -1.9590 O   0  0  0  0  0
   -3.0050   -0.3610   -0.8260 C   0  0  0  0  0
   -3.4850   -1.2730    0.2720 C   0  0  0  0  0
   -4.4740   -2.2880   -0.3040 C   0  0  0  0  0
   -4.9620   -3.2150    0.8120 C   0  0  0  0  0
   -5.9510   -4.2300    0.2360 C   0  0  0  0  0
   -6.4390   -5.1570    1.3520 C   0  0  0  0  0
   -7.4140   -6.1560    0.7840 C   0  0  0  0  0
   -6.9570   -7.3660    0.2950 C   0  0  0  0  0
   -7.8520   -8.2820   -0.2260 C   0  0  0  0  0
   -9.2020   -7.9900   -0.2560 C   0  0  0  0  0
   -9.6590   -6.7810    0.2340 C   0  0  0  0  0
   -8.7650   -5.8660    0.7590 C   0  0  0  0  0
   -1.6540    1.5060   -1.6190 C   0  0  0  0  0
   -2.6480    2.6550   -1.7980 C   0  0  0  0  0
   -2.6730    3.4530   -0.6130 O   0  0  0  0  0
   -3.5750    4.5600   -0.6760 C   0  0  0  0  0
   -3.3410    5.4770    0.5270 C   0  0  0  0  0
   -1.9800    5.9130    0.5390 O   0  0  0  0  0
   -3.6430    4.7050    1.8150 C   0  0  0  0  0
   -3.4980    5.5750    2.9400 O   0  0  0  0  0
   -5.0800    4.1770    1.7570 C   0  0  0  0  0
   -5.9900    5.2770    1.6990 O   0  0  0  0  0
   -5.2460    3.3090    0.5060 C   0  0  0  0  0
   -6.6950    2.8280    0.4090 C   0  0  0  0  0
   -6.8230    1.9250   -0.6920 O   0  0  0  0  0
   -4.9200    4.0800   -0.6530 O   0  0  0  0  0
   -0.2820    2.0720   -1.2490 C   0  0  0  0  0
    0.1160    3.0350   -2.2270 O   0  0  0  0  0
    0.7430    0.9370   -1.2040 C   0  0  0  0  0
    0.3450   -0.0260   -0.2260 O   0  0  0  0  0
    2.1150    1.5030   -0.8340 C   0  0  0  0  0
    3.1630    0.3910   -0.9100 C   0  0  0  0  0
    4.5360    0.9570   -0.5400 C   0  0  0  0  0
    5.5840   -0.1550   -0.6170 C   0  0  0  0  0
    6.9560    0.4110   -0.2460 C   0  0  0  0  0
    8.0040   -0.7010   -0.3230 C   0  0  0  0  0
    9.3760   -0.1350    0.0470 C   0  0  0  0  0
   10.4240   -1.2470   -0.0290 C   0  0  0  0  0
   17.6850   -2.8850    0.8520 C   0  0  0  0  0
   -1.7960    0.7380    0.3550 H   0  0  0  0  0
   12.5810   -2.5900    0.9600 H   0  0  0  0  0
   12.8780   -2.1920   -0.7490 H   0  0  0  0  0
   11.7640   -0.2820    1.3550 H   0  0  0  0  0
   12.0610    0.1160   -0.3540 H   0  0  0  0  0
   16.9020   -0.9760    0.2330 H   0  0  0  0  0
   16.6040   -1.3740    1.9420 H   0  0  0  0  0
   15.2980   -2.7380   -0.4560 H   0  0  0  0  0
   15.0010   -3.1360    1.2530 H   0  0  0  0  0
   14.4810   -0.4300   -0.0610 H   0  0  0  0  0
   14.1840   -0.8280    1.6490 H   0  0  0  0  0
   -2.6340   -1.8010    0.7040 H   0  0  0  0  0
   -3.9770   -0.6840    1.0450 H   0  0  0  0  0
   -5.3250   -1.7610   -0.7360 H   0  0  0  0  0
   -3.9820   -2.8780   -1.0770 H   0  0  0  0  0
   -4.1110   -3.7420    1.2440 H   0  0  0  0  0
   -5.4540   -2.6250    1.5850 H   0  0  0  0  0
   -6.8020   -3.7030   -0.1960 H   0  0  0  0  0
   -5.4590   -4.8190   -0.5370 H   0  0  0  0  0
   -5.5880   -5.6840    1.7830 H   0  0  0  0  0
   -6.9310   -4.5670    2.1250 H   0  0  0  0  0
   -5.9020   -7.5940    0.3180 H   0  0  0  0  0
   -7.4950   -9.2270   -0.6090 H   0  0  0  0  0
   -9.9010   -8.7060   -0.6630 H   0  0  0  0  0
  -10.7140   -6.5520    0.2100 H   0  0  0  0  0
   -9.1220   -4.9230    1.1450 H   0  0  0  0  0
   -1.5760    0.9450   -2.5500 H   0  0  0  0  0
   -2.3430    3.2710   -2.6440 H   0  0  0  0  0
   -3.6430    2.2500   -1.9840 H   0  0  0  0  0
   -3.4030    5.1170   -1.5970 H   0  0  0  0  0
   -4.0000    6.3430    0.4580 H   0  0  0  0  0
   -1.7180    6.4060   -0.2500 H   0  0  0  0  0
   -2.9490    3.8690    1.9100 H   0  0  0  0  0
   -2.6130    5.9510    3.0340 H   0  0  0  0  0
   -5.2850    3.5800    2.6450 H   0  0  0  0  0
   -5.9360    5.8720    2.4600 H   0  0  0  0  0
   -4.5800    2.4490    0.5700 H   0  0  0  0  0
   -6.9710    2.3170    1.3310 H   0  0  0  0  0
   -7.3520    3.6830    0.2550 H   0  0  0  0  0
   -7.7180    1.5790   -0.8140 H   0  0  0  0  0
   -0.3380    2.5500   -0.2710 H   0  0  0  0  0
    0.1140    2.6980   -3.1340 H   0  0  0  0  0
    0.7990    0.4590   -2.1820 H   0  0  0  0  0
    0.2740    0.3310    0.6710 H   0  0  0  0  0
    2.3790    2.3000   -1.5290 H   0  0  0  0  0
    2.0820    1.9020    0.1800 H   0  0  0  0  0
    2.8990   -0.4060   -0.2150 H   0  0  0  0  0
    3.1960   -0.0080   -1.9240 H   0  0  0  0  0
    4.8000    1.7540   -1.2350 H   0  0  0  0  0
    4.5030    1.3560    0.4740 H   0  0  0  0  0
    5.3200   -0.9520    0.0790 H   0  0  0  0  0
    5.6170   -0.5540   -1.6300 H   0  0  0  0  0
    7.2200    1.2080   -0.9420 H   0  0  0  0  0
    6.9230    0.8100    0.7680 H   0  0  0  0  0
    7.7400   -1.4980    0.3730 H   0  0  0  0  0
    8.0370   -1.1000   -1.3370 H   0  0  0  0  0
    9.6410    0.6620   -0.6480 H   0  0  0  0  0
    9.3430    0.2640    1.0610 H   0  0  0  0  0
   10.4570   -1.6460   -1.0430 H   0  0  0  0  0
   10.1600   -2.0440    0.6660 H   0  0  0  0  0
   17.4210   -3.6820    1.5470 H   0  0  0  0  0
   17.7180   -3.2840   -0.1620 H   0  0  0  0  0
   18.6630   -2.4820    1.1160 H   0  0  0  0  0
  1  8  1  0  0  0
  1 20  1  0  0  0
  1 47  1  0  0  0
  2  3  1  0  0  0
  2  6  1  0  0  0
  2 48  1  0  0  0
  2 49  1  0  0  0
  3 45  1  0  0  0
  3 50  1  0  0  0
  3 51  1  0  0  0
  4  5  1  0  0  0
  4 46  1  0  0  0
  4 52  1  0  0  0
  4 53  1  0  0  0
  5  6  1  0  0  0
  5 54  1  0  0  0
  5 55  1  0  0  0
  6 56  1  0  0  0
  6 57  1  0  0  0
  7  8  2  0  0  0
  8  9  1  0  0  0
  9 10  1  0  0  0
  9 58  1  0  0  0
  9 59  1  0  0  0
 10 11  1  0  0  0
 10 60  1  0  0  0
 10 61  1  0  0  0
 11 12  1  0  0  0
 11 62  1  0  0  0
 11 63  1  0  0  0
 12 13  1  0  0  0
 12 64  1  0  0  0
 12 65  1  0  0  0
 13 14  1  0  0  0
 13 66  1  0  0  0
 13 67  1  0  0  0
 14 15  2  0  0  0
 14 19  1  0  0  0
 15 16  1  0  0  0
 15 68  1  0  0  0
 16 17  2  0  0  0
 16 69  1  0  0  0
 17 18  1  0  0  0
 17 70  1  0  0  0
 18 19  2  0  0  0
 18 71  1  0  0  0
 19 72  1  0  0  0
 20 21  1  0  0  0
 20 34  1  0  0  0
 20 73  1  0  0  0
 21 22  1  0  0  0
 21 74  1  0  0  0
 21 75  1  0  0  0
 22 23  1  0  0  0
 23 24  1  0  0  0
 23 33  1  0  0  0
 23 76  1  0  0  0
 24 25  1  0  0  0
 24 26  1  0  0  0
 24 77  1  0  0  0
 25 78  1  0  0  0
 26 27  1  0  0  0
 26 28  1  0  0  0
 26 79  1  0  0  0
 27 80  1  0  0  0
 28 29  1  0  0  0
 28 30  1  0  0  0
 28 81  1  0  0  0
 29 82  1  0  0  0
 30 31  1  0  0  0
 30 33  1  0  0  0
 30 83  1  0  0  0
 31 32  1  0  0  0
 31 84  1  0  0  0
 31 85  1  0  0  0
 32 86  1  0  0  0
 34 35  1  0  0  0
 34 36  1  0  0  0
 34 87  1  0  0  0
 35 88  1  0  0  0
 36 37  1  0  0  0
 36 38  1  0  0  0
 36 89  1  0  0  0
 37 90  1  0  0  0
 38 39  1  0  0  0
 38 91  1  0  0  0
 38 92  1  0  0  0
 39 40  1  0  0  0
 39 93  1  0  0  0
 39 94  1  0  0  0
 40 41  1  0  0  0
 40 95  1  0  0  0
 40 96  1  0  0  0
 41 42  1  0  0  0
 41 97  1  0  0  0
 41 98  1  0  0  0
 42 43  1  0  0  0
 42 99  1  0  0  0
 42100  1  0  0  0
 43 44  1  0  0  0
 43101  1  0  0  0
 43102  1  0  0  0
 44 45  1  0  0  0
 44103  1  0  0  0
 44104  1  0  0  0
 45105  1  0  0  0
 45106  1  0  0  0
 46107  1  0  0  0
 46108  1  0  0  0
 46109  1  0  0  0
M  END
$$$$
