C7J
  CCTOOLS-0919241036

 75 78  0  0  1  0  0  0  0  0999 V2000
   -5.7460   -0.1650   -0.9190 C   0  0  0  0  0
   -5.2360   -1.4680   -0.2740 C   0  0  0  0  0
   -6.3670   -2.0190    1.0170 CL  0  0  0  0  0
   -5.2110   -2.4810   -1.4400 C   0  0  0  0  0
   -5.0630   -1.6740   -2.6250 O   0  0  0  0  0
   -5.9000   -0.5150   -2.4260 C   0  0  0  0  0
   -5.3440    0.5770   -3.1710 O   0  0  0  0  0
   -4.8800    1.6010   -2.2780 C   0  0  0  0  0
   -4.5970    0.8740   -0.9390 C   0  0  0  0  0
   -3.3010    0.2200   -0.9620 O   0  0  0  0  0
   -2.2770    0.8730   -0.3800 C   0  0  0  0  0
   -2.4610    1.9580    0.1330 O   0  0  0  0  0
   -1.0470    0.3210   -0.3670 N   0  0  0  0  0
    0.0670    1.0310    0.2660 C   0  0  0  0  0
    0.0760    0.7300    1.7660 C   0  0  0  0  0
   -1.1680    1.2970    2.3990 C   0  0  0  0  0
   -2.3120    0.5250    2.4870 C   0  0  0  0  0
   -3.4530    1.0440    3.0680 C   0  0  0  0  0
   -3.4510    2.3360    3.5620 C   0  0  0  0  0
   -2.3080    3.1070    3.4750 C   0  0  0  0  0
   -1.1650    2.5860    2.8980 C   0  0  0  0  0
    1.3860    0.5670   -0.3550 C   0  0  0  0  0
    1.5960   -0.8140   -0.0520 O   0  0  0  0  0
    2.5390    1.3950    0.2160 C   0  0  0  0  0
    3.7820    1.0450   -0.4750 N   0  0  0  0  0
    3.9480    1.3740   -1.8930 C   0  0  0  0  0
    4.4510    2.8130   -2.0270 C   0  0  0  0  0
    5.8500    2.9240   -1.4190 C   0  0  0  0  0
    4.5060    3.1980   -3.5070 C   0  0  0  0  0
    4.9980    0.2780    0.3450 S   0  0  0  0  0
    6.1670    0.4130   -0.4510 O   0  0  0  0  0
    4.9190    0.7270    1.6910 O   0  0  0  0  0
    4.6080   -1.4400    0.3700 C   0  0  0  0  0
    4.9410   -2.2380   -0.7090 C   0  0  0  0  0
    4.6370   -3.5850   -0.6930 C   0  0  0  0  0
    3.9960   -4.1380    0.4080 C   0  0  0  0  0
    3.6870   -5.5000    0.4280 N   0  0  0  0  0
    3.6630   -3.3330    1.4900 C   0  0  0  0  0
    3.9750   -1.9880    1.4700 C   0  0  0  0  0
   -6.6660    0.2050   -0.4650 H   0  0  0  0  0
   -4.2340   -1.3260    0.1320 H   0  0  0  0  0
   -6.9380   -0.7140   -2.6910 H   0  0  0  0  0
   -4.6740    1.5610   -0.0960 H   0  0  0  0  0
   -4.3650   -3.1600   -1.3340 H   0  0  0  0  0
   -6.1460   -3.0410   -1.4750 H   0  0  0  0  0
   -3.9660    2.0520   -2.6640 H   0  0  0  0  0
   -5.6490    2.3610   -2.1410 H   0  0  0  0  0
   -0.9000   -0.5460   -0.7770 H   0  0  0  0  0
   -0.0500    2.1030    0.1110 H   0  0  0  0  0
    0.1040   -0.3480    1.9210 H   0  0  0  0  0
    0.9560    1.1860    2.2230 H   0  0  0  0  0
    1.3450    0.6990   -1.4360 H   0  0  0  0  0
   -2.3130   -0.4840    2.1010 H   0  0  0  0  0
   -0.2700    3.1880    2.8330 H   0  0  0  0  0
   -4.3470    0.4420    3.1360 H   0  0  0  0  0
   -4.3440    2.7420    4.0150 H   0  0  0  0  0
   -2.3060    4.1160    3.8600 H   0  0  0  0  0
    1.6920   -0.9990    0.8930 H   0  0  0  0  0
    2.3290    2.4550    0.0740 H   0  0  0  0  0
    2.6440    1.1860    1.2810 H   0  0  0  0  0
    4.6720    0.6930   -2.3410 H   0  0  0  0  0
    2.9910    1.2750   -2.4040 H   0  0  0  0  0
    3.7720    3.4850   -1.5020 H   0  0  0  0  0
    6.5290    2.2510   -1.9440 H   0  0  0  0  0
    6.2080    3.9490   -1.5140 H   0  0  0  0  0
    5.8110    2.6490   -0.3650 H   0  0  0  0  0
    3.5090    3.1200   -3.9400 H   0  0  0  0  0
    4.8640    4.2230   -3.6020 H   0  0  0  0  0
    5.1850    2.5260   -4.0320 H   0  0  0  0  0
    5.4400   -1.8080   -1.5650 H   0  0  0  0  0
    3.7200   -1.3620    2.3130 H   0  0  0  0  0
    4.8970   -4.2080   -1.5360 H   0  0  0  0  0
    3.9210   -6.0610   -0.3280 H   0  0  0  0  0
    3.2390   -5.8850    1.1980 H   0  0  0  0  0
    3.1640   -3.7590    2.3480 H   0  0  0  0  0
  1  2  1  0  0  0
  1  6  1  0  0  0
  1  9  1  0  0  0
  1 40  1  0  0  0
  2  3  1  0  0  0
  2  4  1  0  0  0
  2 41  1  0  0  0
  4  5  1  0  0  0
  4 44  1  0  0  0
  4 45  1  0  0  0
  5  6  1  0  0  0
  6  7  1  0  0  0
  6 42  1  0  0  0
  7  8  1  0  0  0
  8  9  1  0  0  0
  8 46  1  0  0  0
  8 47  1  0  0  0
  9 10  1  0  0  0
  9 43  1  0  0  0
 10 11  1  0  0  0
 11 12  2  0  0  0
 11 13  1  0  0  0
 13 14  1  0  0  0
 13 48  1  0  0  0
 14 15  1  0  0  0
 14 22  1  0  0  0
 14 49  1  0  0  0
 15 16  1  0  0  0
 15 50  1  0  0  0
 15 51  1  0  0  0
 16 17  1  0  0  0
 16 21  2  0  0  0
 17 18  2  0  0  0
 17 53  1  0  0  0
 18 19  1  0  0  0
 18 55  1  0  0  0
 19 20  2  0  0  0
 19 56  1  0  0  0
 20 21  1  0  0  0
 20 57  1  0  0  0
 21 54  1  0  0  0
 22 23  1  0  0  0
 22 24  1  0  0  0
 22 52  1  0  0  0
 23 58  1  0  0  0
 24 25  1  0  0  0
 24 59  1  0  0  0
 24 60  1  0  0  0
 25 26  1  0  0  0
 25 30  1  0  0  0
 26 27  1  0  0  0
 26 61  1  0  0  0
 26 62  1  0  0  0
 27 28  1  0  0  0
 27 29  1  0  0  0
 27 63  1  0  0  0
 28 64  1  0  0  0
 28 65  1  0  0  0
 28 66  1  0  0  0
 29 67  1  0  0  0
 29 68  1  0  0  0
 29 69  1  0  0  0
 30 31  2  0  0  0
 30 32  2  0  0  0
 30 33  1  0  0  0
 33 34  1  0  0  0
 33 39  2  0  0  0
 34 35  2  0  0  0
 34 70  1  0  0  0
 35 36  1  0  0  0
 35 72  1  0  0  0
 36 37  1  0  0  0
 36 38  2  0  0  0
 37 73  1  0  0  0
 37 74  1  0  0  0
 38 39  1  0  0  0
 38 75  1  0  0  0
 39 71  1  0  0  0
M  END
$$$$
