C7L
  CCTOOLS-0919241037

 86 89  0  0  1  0  0  0  0  0999 V2000
    8.4250    4.7480   -0.4100 C   0  0  0  0  0
   -5.5910   -3.2970   -2.5060 C   0  0  0  0  0
   -4.5770   -2.9280   -0.2530 C   0  0  0  0  0
    1.9120   -1.8290    1.2080 O   0  0  0  0  0
   -4.9570    1.2750   -2.7140 O   0  0  0  0  0
   -3.6430    2.1700   -0.7850 O   0  0  0  0  0
   -1.2070    1.1500   -1.1540 O   0  0  0  0  0
    2.3140   -0.6480    4.5750 C   0  0  0  0  0
    2.7210    0.2160    3.5760 C   0  0  0  0  0
    1.0280   -1.1570    4.5670 C   0  0  0  0  0
    1.8440    0.5720    2.5690 C   0  0  0  0  0
    0.1500   -0.8000    3.5600 C   0  0  0  0  0
   -5.8790    1.5450    0.9610 C   0  0  0  0  0
   -7.0070    1.4990    1.7560 C   0  0  0  0  0
   -7.1390    0.6870   -0.8880 C   0  0  0  0  0
    6.3040    3.6320   -0.4400 C   0  0  0  0  0
    5.5830    2.4120   -1.0170 C   0  0  0  0  0
    6.2930   -0.4900   -2.2310 C   0  0  0  0  0
    4.5000   -3.1760   -0.3520 C   0  0  0  0  0
   -0.4000    0.4540    1.4650 C   0  0  0  0  0
   -4.0610   -1.3580   -2.1270 C   0  0  0  0  0
   -2.7270   -0.4500   -0.1690 C   0  0  0  0  0
   -9.3520    0.9980    2.0280 N   0  0  0  0  0
    1.0590   -0.4280   -0.2890 N   0  0  0  0  0
    7.6590    3.6430   -0.8940 O   0  0  0  0  0
    6.1680    1.2190   -0.4890 O   0  0  0  0  0
    6.2820   -1.9280   -2.1120 O   0  0  0  0  0
    5.9170   -3.4530   -0.3710 O   0  0  0  0  0
    3.3160   -1.0180   -0.3070 O   0  0  0  0  0
    2.0900   -1.1170    0.2390 C   0  0  0  0  0
    0.5580    0.0640    2.5620 C   0  0  0  0  0
   -5.9440    1.1400   -0.3590 C   0  0  0  0  0
   -8.2090    1.0450    1.2280 C   0  0  0  0  0
   -8.2710    0.6380   -0.0990 C   0  0  0  0  0
   -5.1420   -2.2390   -1.4960 C   0  0  0  0  0
   -1.3330   -0.2160   -0.7540 C   0  0  0  0  0
   -0.2760   -0.5360    0.3050 C   0  0  0  0  0
    5.5640    0.0150   -0.9660 C   0  0  0  0  0
    4.3790   -1.7880    0.3140 C   0  0  0  0  0
   -3.7340   -0.2590   -1.2160 N   0  0  0  0  0
    6.5490   -2.2050   -0.7220 C   0  0  0  0  0
    5.7480   -1.1240    0.0580 C   0  0  0  0  0
   -4.5020    1.2000   -1.3700 S   0  0  0  0  0
    7.9680    5.6800   -0.7420 H   0  0  0  0  0
    8.4510    4.7230    0.6790 H   0  0  0  0  0
    9.4410    4.6830   -0.7990 H   0  0  0  0  0
   -6.3610   -3.9240   -2.0570 H   0  0  0  0  0
   -5.9940   -2.8060   -3.3920 H   0  0  0  0  0
   -4.7390   -3.9140   -2.7890 H   0  0  0  0  0
   -3.6450   -3.4320   -0.5090 H   0  0  0  0  0
   -4.3870   -2.1840    0.5200 H   0  0  0  0  0
   -5.2960   -3.6600    0.1160 H   0  0  0  0  0
   -1.3240    1.7840   -0.4330 H   0  0  0  0  0
    3.0010   -0.9300    5.3590 H   0  0  0  0  0
    3.7260    0.6130    3.5830 H   0  0  0  0  0
    0.7100   -1.8320    5.3470 H   0  0  0  0  0
    2.1620    1.2470    1.7890 H   0  0  0  0  0
   -0.8540   -1.1970    3.5540 H   0  0  0  0  0
   -4.9450    1.9020    1.3700 H   0  0  0  0  0
   -6.9560    1.8150    2.7870 H   0  0  0  0  0
   -7.1870    0.3720   -1.9200 H   0  0  0  0  0
    5.8020    4.5410   -0.7720 H   0  0  0  0  0
    6.2860    3.5840    0.6490 H   0  0  0  0  0
    4.5280    2.4510   -0.7440 H   0  0  0  0  0
    5.6780    2.4130   -2.1020 H   0  0  0  0  0
    7.3180   -0.1190   -2.2520 H   0  0  0  0  0
    5.7570   -0.1790   -3.1280 H   0  0  0  0  0
    4.1050   -3.1460   -1.3670 H   0  0  0  0  0
    3.9750   -3.9280    0.2380 H   0  0  0  0  0
   -1.4190    0.4370    1.8500 H   0  0  0  0  0
   -0.1600    1.4570    1.1130 H   0  0  0  0  0
   -3.1680   -1.9550   -2.3120 H   0  0  0  0  0
   -4.4280   -0.9520   -3.0700 H   0  0  0  0  0
   -2.7940   -1.4670    0.2170 H   0  0  0  0  0
   -2.9060    0.2590    0.6400 H   0  0  0  0  0
   -9.3080    1.2820    2.9550 H   0  0  0  0  0
  -10.1910    0.6800    1.6580 H   0  0  0  0  0
    1.2010    0.1400   -1.0630 H   0  0  0  0  0
   -9.2040    0.2850   -0.5130 H   0  0  0  0  0
   -5.9940   -1.6210   -1.2140 H   0  0  0  0  0
   -1.1890   -0.8630   -1.6190 H   0  0  0  0  0
   -0.4280   -1.5500    0.6750 H   0  0  0  0  0
    4.5070    0.1770   -1.1750 H   0  0  0  0  0
    4.1980   -1.8930    1.3840 H   0  0  0  0  0
    7.6150   -2.1980   -0.4920 H   0  0  0  0  0
    6.2370   -0.7940    0.9750 H   0  0  0  0  0
  1 25  1  0  0  0
  1 44  1  0  0  0
  1 45  1  0  0  0
  1 46  1  0  0  0
  2 35  1  0  0  0
  2 47  1  0  0  0
  2 48  1  0  0  0
  2 49  1  0  0  0
  3 35  1  0  0  0
  3 50  1  0  0  0
  3 51  1  0  0  0
  3 52  1  0  0  0
  4 30  2  0  0  0
  5 43  2  0  0  0
  6 43  2  0  0  0
  7 36  1  0  0  0
  7 53  1  0  0  0
  8  9  2  0  0  0
  8 10  1  0  0  0
  8 54  1  0  0  0
  9 11  1  0  0  0
  9 55  1  0  0  0
 10 12  2  0  0  0
 10 56  1  0  0  0
 11 31  2  0  0  0
 11 57  1  0  0  0
 12 31  1  0  0  0
 12 58  1  0  0  0
 13 14  2  0  0  0
 13 32  1  0  0  0
 13 59  1  0  0  0
 14 33  1  0  0  0
 14 60  1  0  0  0
 15 32  2  0  0  0
 15 34  1  0  0  0
 15 61  1  0  0  0
 16 17  1  0  0  0
 16 25  1  0  0  0
 16 62  1  0  0  0
 16 63  1  0  0  0
 17 26  1  0  0  0
 17 64  1  0  0  0
 17 65  1  0  0  0
 18 27  1  0  0  0
 18 38  1  0  0  0
 18 66  1  0  0  0
 18 67  1  0  0  0
 19 28  1  0  0  0
 19 39  1  0  0  0
 19 68  1  0  0  0
 19 69  1  0  0  0
 20 31  1  0  0  0
 20 37  1  0  0  0
 20 70  1  0  0  0
 20 71  1  0  0  0
 21 35  1  0  0  0
 21 40  1  0  0  0
 21 72  1  0  0  0
 21 73  1  0  0  0
 22 36  1  0  0  0
 22 40  1  0  0  0
 22 74  1  0  0  0
 22 75  1  0  0  0
 23 33  1  0  0  0
 23 76  1  0  0  0
 23 77  1  0  0  0
 24 30  1  0  0  0
 24 37  1  0  0  0
 24 78  1  0  0  0
 26 38  1  0  0  0
 27 41  1  0  0  0
 28 41  1  0  0  0
 29 30  1  0  0  0
 29 39  1  0  0  0
 32 43  1  0  0  0
 33 34  2  0  0  0
 34 79  1  0  0  0
 35 80  1  0  0  0
 36 37  1  0  0  0
 36 81  1  0  0  0
 37 82  1  0  0  0
 38 42  1  0  0  0
 38 83  1  0  0  0
 39 42  1  0  0  0
 39 84  1  0  0  0
 40 43  1  0  0  0
 41 42  1  0  0  0
 41 85  1  0  0  0
 42 86  1  0  0  0
M  END
$$$$
