C7U
  CCTOOLS-0919241037

 80 84  0  0  1  0  0  0  0  0999 V2000
   -5.9020    1.5300    0.8510 C   0  0  0  0  0
   -5.2430    2.2440   -0.3450 C   0  0  0  0  0
   -6.4340    2.4680   -1.6810 CL  0  0  0  0  0
   -4.8070    3.6110    0.2260 C   0  0  0  0  0
   -4.6360    3.3820    1.6390 O   0  0  0  0  0
   -5.7210    2.5170    2.0370 C   0  0  0  0  0
   -5.2920    1.7450    3.1660 O   0  0  0  0  0
   -5.2130    0.3550    2.8160 C   0  0  0  0  0
   -5.0130    0.3350    1.2790 C   0  0  0  0  0
   -3.6230    0.5650    0.9290 O   0  0  0  0  0
   -2.8750   -0.5200    0.6540 C   0  0  0  0  0
   -3.3690   -1.6280    0.7040 O   0  0  0  0  0
   -1.5760   -0.3760    0.3220 N   0  0  0  0  0
   -0.7620   -1.5560    0.0220 C   0  0  0  0  0
   -0.9430   -1.9410   -1.4480 C   0  0  0  0  0
   -2.3680   -2.3700   -1.6820 C   0  0  0  0  0
   -3.3200   -1.4360   -2.0490 C   0  0  0  0  0
   -4.6270   -1.8300   -2.2640 C   0  0  0  0  0
   -4.9830   -3.1570   -2.1130 C   0  0  0  0  0
   -4.0320   -4.0910   -1.7470 C   0  0  0  0  0
   -2.7230   -3.6980   -1.5360 C   0  0  0  0  0
    0.7110   -1.2400    0.2890 C   0  0  0  0  0
    1.1550   -0.2330   -0.6230 O   0  0  0  0  0
    1.5480   -2.5070    0.0950 C   0  0  0  0  0
    2.9350   -2.2400    0.4840 N   0  0  0  0  0
    3.3090   -2.2240    1.9000 C   0  0  0  0  0
    3.6550   -3.6440    2.3520 C   0  0  0  0  0
    4.1760   -3.6080    3.7900 C   0  0  0  0  0
    2.4030   -4.5200    2.2860 C   0  0  0  0  0
    4.0800   -1.9560   -0.6780 S   0  0  0  0  0
    5.3130   -2.4220   -0.1480 O   0  0  0  0  0
    3.5340   -2.4260   -1.9030 O   0  0  0  0  0
    4.2370   -0.2090   -0.8410 C   0  0  0  0  0
    5.0570    0.4890    0.0220 C   0  0  0  0  0
    5.1820    1.8630   -0.1040 C   0  0  0  0  0
    5.8850    2.8050    0.5670 O   0  0  0  0  0
    5.6270    4.0000    0.0080 C   0  0  0  0  0
    6.1640    5.1970    0.4220 N   0  0  0  0  0
    5.8060    6.4380   -0.2690 C   0  0  0  0  0
    4.7910    3.8580   -0.9890 N   0  0  0  0  0
    4.4740    2.5390   -1.1090 C   0  0  0  0  0
    3.6490    1.8210   -1.9750 C   0  0  0  0  0
    3.5400    0.4540   -1.8390 C   0  0  0  0  0
   -6.9430    1.2600    0.6670 H   0  0  0  0  0
   -4.3780    1.6810   -0.6970 H   0  0  0  0  0
   -6.6330    3.0790    2.2400 H   0  0  0  0  0
   -5.3760   -0.5990    0.8480 H   0  0  0  0  0
   -3.8670    3.9280   -0.2250 H   0  0  0  0  0
   -5.5820    4.3590    0.0540 H   0  0  0  0  0
   -4.3640   -0.1130    3.3130 H   0  0  0  0  0
   -6.1380   -0.1560    3.0830 H   0  0  0  0  0
   -1.1810    0.5090    0.2820 H   0  0  0  0  0
   -1.0760   -2.3850    0.6560 H   0  0  0  0  0
   -0.7130   -1.0820   -2.0790 H   0  0  0  0  0
   -0.2710   -2.7630   -1.6940 H   0  0  0  0  0
    0.8270   -0.8810    1.3110 H   0  0  0  0  0
   -3.0420   -0.4000   -2.1670 H   0  0  0  0  0
   -1.9790   -4.4280   -1.2540 H   0  0  0  0  0
   -5.3710   -1.1010   -2.5500 H   0  0  0  0  0
   -6.0050   -3.4650   -2.2810 H   0  0  0  0  0
   -4.3100   -5.1280   -1.6290 H   0  0  0  0  0
    1.1470   -0.5100   -1.5500 H   0  0  0  0  0
    1.1440   -3.3060    0.7160 H   0  0  0  0  0
    1.5150   -2.8070   -0.9520 H   0  0  0  0  0
    4.1750   -1.5760    2.0400 H   0  0  0  0  0
    2.4740   -1.8470    2.4920 H   0  0  0  0  0
    4.4230   -4.0560    1.6980 H   0  0  0  0  0
    3.4090   -3.1950    4.4450 H   0  0  0  0  0
    4.4230   -4.6200    4.1130 H   0  0  0  0  0
    5.0690   -2.9840    3.8380 H   0  0  0  0  0
    2.6140   -5.4900    2.7360 H   0  0  0  0  0
    1.5910   -4.0360    2.8290 H   0  0  0  0  0
    2.1110   -4.6580    1.2440 H   0  0  0  0  0
    5.5990   -0.0340    0.7950 H   0  0  0  0  0
    2.9050   -0.1030   -2.5120 H   0  0  0  0  0
    6.0970    6.3680   -1.3170 H   0  0  0  0  0
    4.7300    6.5950   -0.2000 H   0  0  0  0  0
    6.3250    7.2760    0.1970 H   0  0  0  0  0
    3.1010    2.3340   -2.7520 H   0  0  0  0  0
    6.7790    5.2190    1.1720 H   0  0  0  0  0
  1  2  1  0  0  0
  1  6  1  0  0  0
  1  9  1  0  0  0
  1 44  1  0  0  0
  2  3  1  0  0  0
  2  4  1  0  0  0
  2 45  1  0  0  0
  4  5  1  0  0  0
  4 48  1  0  0  0
  4 49  1  0  0  0
  5  6  1  0  0  0
  6  7  1  0  0  0
  6 46  1  0  0  0
  7  8  1  0  0  0
  8  9  1  0  0  0
  8 50  1  0  0  0
  8 51  1  0  0  0
  9 10  1  0  0  0
  9 47  1  0  0  0
 10 11  1  0  0  0
 11 12  2  0  0  0
 11 13  1  0  0  0
 13 14  1  0  0  0
 13 52  1  0  0  0
 14 15  1  0  0  0
 14 22  1  0  0  0
 14 53  1  0  0  0
 15 16  1  0  0  0
 15 54  1  0  0  0
 15 55  1  0  0  0
 16 17  1  0  0  0
 16 21  2  0  0  0
 17 18  2  0  0  0
 17 57  1  0  0  0
 18 19  1  0  0  0
 18 59  1  0  0  0
 19 20  2  0  0  0
 19 60  1  0  0  0
 20 21  1  0  0  0
 20 61  1  0  0  0
 21 58  1  0  0  0
 22 23  1  0  0  0
 22 24  1  0  0  0
 22 56  1  0  0  0
 23 62  1  0  0  0
 24 25  1  0  0  0
 24 63  1  0  0  0
 24 64  1  0  0  0
 25 26  1  0  0  0
 25 30  1  0  0  0
 26 27  1  0  0  0
 26 65  1  0  0  0
 26 66  1  0  0  0
 27 28  1  0  0  0
 27 29  1  0  0  0
 27 67  1  0  0  0
 28 68  1  0  0  0
 28 69  1  0  0  0
 28 70  1  0  0  0
 29 71  1  0  0  0
 29 72  1  0  0  0
 29 73  1  0  0  0
 30 31  2  0  0  0
 30 32  2  0  0  0
 30 33  1  0  0  0
 33 34  1  0  0  0
 33 43  2  0  0  0
 34 35  2  0  0  0
 34 74  1  0  0  0
 35 36  1  0  0  0
 35 41  1  0  0  0
 36 37  1  0  0  0
 37 38  1  0  0  0
 37 40  2  0  0  0
 38 39  1  0  0  0
 38 80  1  0  0  0
 39 76  1  0  0  0
 39 77  1  0  0  0
 39 78  1  0  0  0
 40 41  1  0  0  0
 41 42  2  0  0  0
 42 43  1  0  0  0
 42 79  1  0  0  0
 43 75  1  0  0  0
M  END
$$$$
