C7W
  CCTOOLS-0919241037

 90 94  0  0  1  0  0  0  0  0999 V2000
   11.4380    0.5240   -2.1920 C   0  0  0  0  0
   -5.1350    4.4040   -0.2610 F   0  0  0  0  0
   -6.7130    4.5490    1.3850 F   0  0  0  0  0
    5.4330   -2.0680    1.4270 C   0  0  0  0  0
   -7.1650    5.3520   -0.7060 F   0  0  0  0  0
    4.2970   -3.5620    3.0750 C   0  0  0  0  0
   -2.4010   -2.4780   -0.9700 O   0  0  0  0  0
    4.1960    1.3820    2.8320 O   0  0  0  0  0
    2.8040    2.0160    0.8550 O   0  0  0  0  0
    0.4710    0.9320    1.1040 O   0  0  0  0  0
   -2.6300   -1.8130   -4.4910 C   0  0  0  0  0
   -3.1250   -0.8310   -3.6540 C   0  0  0  0  0
   -1.3320   -2.2640   -4.3350 C   0  0  0  0  0
   -2.3230   -0.2990   -2.6620 C   0  0  0  0  0
   -0.5300   -1.7310   -3.3430 C   0  0  0  0  0
    5.0160    1.2190   -0.8930 C   0  0  0  0  0
    6.1220    1.1560   -1.7120 C   0  0  0  0  0
    6.3910    0.8580    1.0430 C   0  0  0  0  0
   -7.0550    2.9830   -0.3910 C   0  0  0  0  0
   -6.3330    1.8880    0.3980 C   0  0  0  0  0
   -7.0260   -0.8340    1.9820 C   0  0  0  0  0
   -5.0370   -3.6890    0.6210 C   0  0  0  0  0
   -0.1500   -0.1670   -1.4260 C   0  0  0  0  0
    3.3540   -1.3020    2.5820 C   0  0  0  0  0
    2.0990   -0.7310    0.4520 C   0  0  0  0  0
    8.6360    0.8320   -1.6780 N   0  0  0  0  0
   10.8410    0.4720   -0.8550 N   0  0  0  0  0
   -1.6860   -0.8440    0.3520 N   0  0  0  0  0
   -6.5050    4.3510    0.0160 C   0  0  0  0  0
   -6.8470    0.6100    0.0180 O   0  0  0  0  0
   -6.9630   -2.2730    2.0760 O   0  0  0  0  0
   -6.4430   -4.0170    0.6010 O   0  0  0  0  0
   -3.9210   -1.5150    0.3280 O   0  0  0  0  0
    8.8320    0.6010    0.4750 O   0  0  0  0  0
   -2.6600   -1.6430   -0.1270 C   0  0  0  0  0
   -1.0250   -0.7480   -2.5070 C   0  0  0  0  0
    5.1490    1.0710    0.4790 C   0  0  0  0  0
    9.4820    0.6300   -0.7010 C   0  0  0  0  0
    7.3840    0.9420   -1.1550 C   0  0  0  0  0
    7.5140    0.7930    0.2340 C   0  0  0  0  0
    4.0800   -2.5100    1.9860 C   0  0  0  0  0
    0.6640   -0.4710    0.9160 C   0  0  0  0  0
   -0.3150   -0.9830   -0.1430 C   0  0  0  0  0
   -6.2370   -0.4870    0.7010 C   0  0  0  0  0
   -4.9180   -2.4080   -0.2330 C   0  0  0  0  0
    3.0320   -0.3510    1.5150 N   0  0  0  0  0
   -7.1350   -2.7580    0.7280 C   0  0  0  0  0
   -6.3210   -1.7690   -0.1550 C   0  0  0  0  0
    3.7230    1.1540    1.5110 S   0  0  0  0  0
   12.5150    0.3790   -2.1150 H   0  0  0  0  0
   11.0090   -0.2640   -2.8120 H   0  0  0  0  0
   11.2330    1.4940   -2.6440 H   0  0  0  0  0
    5.9910   -2.9420    1.0910 H   0  0  0  0  0
    5.2760   -1.3920    0.5860 H   0  0  0  0  0
    5.9970   -1.5540    2.2050 H   0  0  0  0  0
    4.9000   -3.1360    3.8770 H   0  0  0  0  0
    3.3330   -3.8780    3.4740 H   0  0  0  0  0
    4.8140   -4.4230    2.6510 H   0  0  0  0  0
    0.6130    1.4590    0.3060 H   0  0  0  0  0
   -3.2580   -2.2330   -5.2630 H   0  0  0  0  0
   -4.1390   -0.4790   -3.7760 H   0  0  0  0  0
   -0.9450   -3.0310   -4.9890 H   0  0  0  0  0
   -2.7100    0.4690   -2.0080 H   0  0  0  0  0
    0.4840   -2.0820   -3.2220 H   0  0  0  0  0
    4.0390    1.3890   -1.3220 H   0  0  0  0  0
    6.0130    1.2720   -2.7800 H   0  0  0  0  0
    6.4880    0.7440    2.1120 H   0  0  0  0  0
   -6.8930    2.8280   -1.4580 H   0  0  0  0  0
   -8.1230    2.9420   -0.1760 H   0  0  0  0  0
   -5.2660    1.9290    0.1830 H   0  0  0  0  0
   -6.4950    2.0430    1.4650 H   0  0  0  0  0
   -8.0610   -0.5040    1.8900 H   0  0  0  0  0
   -6.5570   -0.3760    2.8520 H   0  0  0  0  0
   -4.7070   -3.4970    1.6420 H   0  0  0  0  0
   -4.4530   -4.4960    0.1780 H   0  0  0  0  0
    0.8910   -0.1980   -1.7460 H   0  0  0  0  0
   -0.4420    0.8670   -1.2400 H   0  0  0  0  0
    2.4340   -1.6320    3.0640 H   0  0  0  0  0
    3.9970   -0.8190    3.3180 H   0  0  0  0  0
    2.2210   -1.7900    0.2230 H   0  0  0  0  0
    2.3050   -0.1400   -0.4410 H   0  0  0  0  0
   -1.8940   -0.1760    1.0250 H   0  0  0  0  0
    3.4770   -2.9370    1.1840 H   0  0  0  0  0
    0.4870   -0.9920    1.8570 H   0  0  0  0  0
   -0.1080   -2.0330   -0.3510 H   0  0  0  0  0
   -5.2000   -0.2560    0.9430 H   0  0  0  0  0
   -4.6680   -2.6590   -1.2640 H   0  0  0  0  0
   -8.1840   -2.8270    0.4400 H   0  0  0  0  0
   -6.7620   -1.5950   -1.1360 H   0  0  0  0  0
   11.4030    0.3260   -0.0780 H   0  0  0  0  0
  1 27  1  0  0  0
  1 50  1  0  0  0
  1 51  1  0  0  0
  1 52  1  0  0  0
  2 29  1  0  0  0
  3 29  1  0  0  0
  4 41  1  0  0  0
  4 53  1  0  0  0
  4 54  1  0  0  0
  4 55  1  0  0  0
  5 29  1  0  0  0
  6 41  1  0  0  0
  6 56  1  0  0  0
  6 57  1  0  0  0
  6 58  1  0  0  0
  7 35  2  0  0  0
  8 49  2  0  0  0
  9 49  2  0  0  0
 10 42  1  0  0  0
 10 59  1  0  0  0
 11 12  2  0  0  0
 11 13  1  0  0  0
 11 60  1  0  0  0
 12 14  1  0  0  0
 12 61  1  0  0  0
 13 15  2  0  0  0
 13 62  1  0  0  0
 14 36  2  0  0  0
 14 63  1  0  0  0
 15 36  1  0  0  0
 15 64  1  0  0  0
 16 17  2  0  0  0
 16 37  1  0  0  0
 16 65  1  0  0  0
 17 39  1  0  0  0
 17 66  1  0  0  0
 18 37  2  0  0  0
 18 40  1  0  0  0
 18 67  1  0  0  0
 19 20  1  0  0  0
 19 29  1  0  0  0
 19 68  1  0  0  0
 19 69  1  0  0  0
 20 30  1  0  0  0
 20 70  1  0  0  0
 20 71  1  0  0  0
 21 31  1  0  0  0
 21 44  1  0  0  0
 21 72  1  0  0  0
 21 73  1  0  0  0
 22 32  1  0  0  0
 22 45  1  0  0  0
 22 74  1  0  0  0
 22 75  1  0  0  0
 23 36  1  0  0  0
 23 43  1  0  0  0
 23 76  1  0  0  0
 23 77  1  0  0  0
 24 41  1  0  0  0
 24 46  1  0  0  0
 24 78  1  0  0  0
 24 79  1  0  0  0
 25 42  1  0  0  0
 25 46  1  0  0  0
 25 80  1  0  0  0
 25 81  1  0  0  0
 26 38  2  0  0  0
 26 39  1  0  0  0
 27 38  1  0  0  0
 27 90  1  0  0  0
 28 35  1  0  0  0
 28 43  1  0  0  0
 28 82  1  0  0  0
 30 44  1  0  0  0
 31 47  1  0  0  0
 32 47  1  0  0  0
 33 35  1  0  0  0
 33 45  1  0  0  0
 34 38  1  0  0  0
 34 40  1  0  0  0
 37 49  1  0  0  0
 39 40  2  0  0  0
 41 83  1  0  0  0
 42 43  1  0  0  0
 42 84  1  0  0  0
 43 85  1  0  0  0
 44 48  1  0  0  0
 44 86  1  0  0  0
 45 48  1  0  0  0
 45 87  1  0  0  0
 46 49  1  0  0  0
 47 48  1  0  0  0
 47 88  1  0  0  0
 48 89  1  0  0  0
M  END
$$$$
