C8E
  CCTOOLS-0919241037

 55 54  0  0  0  0  0  0  0  0999 V2000
   -2.2830   -0.7750   10.1630 C   0  0  0  0  0
   -1.8270    0.2380    9.1120 C   0  0  0  0  0
   -1.2280   -0.5030    7.9140 C   0  0  0  0  0
   -0.7720    0.5100    6.8630 C   0  0  0  0  0
   -0.1740   -0.2300    5.6660 C   0  0  0  0  0
    0.2810    0.7830    4.6140 C   0  0  0  0  0
    0.8800    0.0420    3.4170 C   0  0  0  0  0
    1.3360    1.0550    2.3660 C   0  0  0  0  0
    1.8950    0.3630    1.2480 O   0  0  0  0  0
    2.3000    1.3590    0.3060 C   0  0  0  0  0
    2.9100    0.6810   -0.9210 C   0  0  0  0  0
    1.9390   -0.1770   -1.5240 O   0  0  0  0  0
    2.5660   -0.7770   -2.6590 C   0  0  0  0  0
    1.5750   -1.7140   -3.3530 C   0  0  0  0  0
    0.4330   -0.9680   -3.7790 O   0  0  0  0  0
   -0.4490   -1.8930   -4.4160 C   0  0  0  0  0
   -1.7000   -1.1540   -4.8980 C   0  0  0  0  0
   -1.3230   -0.1370   -5.8280 O   0  0  0  0  0
   -2.5270    0.5120   -6.2400 C   0  0  0  0  0
   -2.1930    1.6180   -7.2420 C   0  0  0  0  0
   -1.5460    1.0490   -8.3820 O   0  0  0  0  0
   -1.4280   -1.3670   10.4920 H   0  0  0  0  0
   -2.7090   -0.2470   11.0160 H   0  0  0  0  0
   -3.0360   -1.4340    9.7300 H   0  0  0  0  0
   -2.6810    0.8290    8.7830 H   0  0  0  0  0
   -1.0740    0.8960    9.5440 H   0  0  0  0  0
   -0.3740   -1.0940    8.2430 H   0  0  0  0  0
   -1.9810   -1.1610    7.4810 H   0  0  0  0  0
   -1.6270    1.1020    6.5340 H   0  0  0  0  0
   -0.0190    1.1690    7.2960 H   0  0  0  0  0
    0.6800   -0.8220    5.9950 H   0  0  0  0  0
   -0.9270   -0.8890    5.2330 H   0  0  0  0  0
   -0.5720    1.3740    4.2850 H   0  0  0  0  0
    1.0340    1.4410    5.0470 H   0  0  0  0  0
    1.7340   -0.5490    3.7460 H   0  0  0  0  0
    0.1270   -0.6160    2.9840 H   0  0  0  0  0
    0.4820    1.6470    2.0370 H   0  0  0  0  0
    2.0890    1.7140    2.7990 H   0  0  0  0  0
    1.4330    1.9470    0.0030 H   0  0  0  0  0
    3.0400    2.0140    0.7650 H   0  0  0  0  0
    3.2190    1.4400   -1.6400 H   0  0  0  0  0
    3.7770    0.0930   -0.6190 H   0  0  0  0  0
    2.8790    0.0000   -3.3550 H   0  0  0  0  0
    3.4370   -1.3460   -2.3340 H   0  0  0  0  0
    2.0530   -2.1720   -4.2180 H   0  0  0  0  0
    1.2620   -2.4920   -2.6570 H   0  0  0  0  0
    0.0540   -2.3480   -5.2680 H   0  0  0  0  0
   -0.7370   -2.6680   -3.7060 H   0  0  0  0  0
   -2.3740   -1.8600   -5.3840 H   0  0  0  0  0
   -2.2040   -0.6980   -4.0460 H   0  0  0  0  0
   -3.1910   -0.2140   -6.7090 H   0  0  0  0  0
   -3.0210    0.9470   -5.3700 H   0  0  0  0  0
   -3.1110    2.1140   -7.5560 H   0  0  0  0  0
   -1.5290    2.3450   -6.7730 H   0  0  0  0  0
   -1.3530    1.7780   -8.9870 H   0  0  0  0  0
  1  2  1  0  0  0
  1 22  1  0  0  0
  1 23  1  0  0  0
  1 24  1  0  0  0
  2  3  1  0  0  0
  2 25  1  0  0  0
  2 26  1  0  0  0
  3  4  1  0  0  0
  3 27  1  0  0  0
  3 28  1  0  0  0
  4  5  1  0  0  0
  4 29  1  0  0  0
  4 30  1  0  0  0
  5  6  1  0  0  0
  5 31  1  0  0  0
  5 32  1  0  0  0
  6  7  1  0  0  0
  6 33  1  0  0  0
  6 34  1  0  0  0
  7  8  1  0  0  0
  7 35  1  0  0  0
  7 36  1  0  0  0
  8  9  1  0  0  0
  8 37  1  0  0  0
  8 38  1  0  0  0
  9 10  1  0  0  0
 10 11  1  0  0  0
 10 39  1  0  0  0
 10 40  1  0  0  0
 11 12  1  0  0  0
 11 41  1  0  0  0
 11 42  1  0  0  0
 12 13  1  0  0  0
 13 14  1  0  0  0
 13 43  1  0  0  0
 13 44  1  0  0  0
 14 15  1  0  0  0
 14 45  1  0  0  0
 14 46  1  0  0  0
 15 16  1  0  0  0
 16 17  1  0  0  0
 16 47  1  0  0  0
 16 48  1  0  0  0
 17 18  1  0  0  0
 17 49  1  0  0  0
 17 50  1  0  0  0
 18 19  1  0  0  0
 19 20  1  0  0  0
 19 51  1  0  0  0
 19 52  1  0  0  0
 20 21  1  0  0  0
 20 53  1  0  0  0
 20 54  1  0  0  0
 21 55  1  0  0  0
M  END
$$$$
