C8F
  CCTOOLS-0919241037

115116  0  0  1  0  0  0  0  0999 V2000
  -12.5160    7.7810    0.8140 F   0  0  0  0  0
  -11.4950    7.0890    0.2640 C   0  0  0  0  0
  -10.2240    7.6380    0.2310 C   0  0  0  0  0
   -9.1800    6.9280   -0.3320 C   0  0  0  0  0
  -11.7170    5.8270   -0.2610 C   0  0  0  0  0
  -10.6710    5.1200   -0.8230 C   0  0  0  0  0
   -9.4040    5.6710   -0.8610 C   0  0  0  0  0
   -8.2650    4.8990   -1.4750 C   0  0  0  0  0
   -7.5890    4.0450   -0.4000 C   0  0  0  0  0
   -6.4330    3.2610   -1.0230 C   0  0  0  0  0
   -5.7570    2.4080    0.0520 C   0  0  0  0  0
   -4.6000    1.6240   -0.5710 C   0  0  0  0  0
   -3.9250    0.7710    0.5040 C   0  0  0  0  0
   -2.7680   -0.0140   -0.1190 C   0  0  0  0  0
   -2.1030   -0.8540    0.9400 C   0  0  0  0  0
   -2.5130   -0.8280    2.0810 O   0  0  0  0  0
   -1.0510   -1.6340    0.6200 N   0  0  0  0  0
   -0.4050   -2.4510    1.6490 C   0  0  0  0  0
   -1.1560   -3.7760    1.7960 C   0  0  0  0  0
   -1.0460   -4.5220    0.5820 O   0  0  0  0  0
   -1.7170   -5.7840    0.6130 C   0  0  0  0  0
   -1.3320   -6.5970   -0.6260 C   0  0  0  0  0
    0.0870   -6.7600   -0.6680 O   0  0  0  0  0
   -1.7990   -5.8530   -1.8810 C   0  0  0  0  0
   -1.5090   -6.6390   -3.0380 O   0  0  0  0  0
   -3.3090   -5.6150   -1.7880 C   0  0  0  0  0
   -3.9900   -6.8710   -1.7630 O   0  0  0  0  0
   -3.6180   -4.8390   -0.5050 C   0  0  0  0  0
   -5.1300   -4.6500   -0.3750 C   0  0  0  0  0
   -5.4110   -3.8280    0.7600 O   0  0  0  0  0
   -3.1310   -5.5720    0.6210 O   0  0  0  0  0
    1.0450   -2.7280    1.2440 C   0  0  0  0  0
    1.6370   -3.6290    2.1820 O   0  0  0  0  0
    1.8310   -1.4160    1.2310 C   0  0  0  0  0
    1.2380   -0.5150    0.2940 O   0  0  0  0  0
    3.2800   -1.6930    0.8260 C   0  0  0  0  0
    4.0950   -0.4030    0.9340 C   0  0  0  0  0
    5.5440   -0.6810    0.5290 C   0  0  0  0  0
    6.3600    0.6090    0.6360 C   0  0  0  0  0
    7.8090    0.3320    0.2310 C   0  0  0  0  0
    8.6240    1.6220    0.3380 C   0  0  0  0  0
   10.0740    1.3450   -0.0670 C   0  0  0  0  0
   10.8890    2.6350    0.0410 C   0  0  0  0  0
   12.3380    2.3570   -0.3640 C   0  0  0  0  0
   13.1540    3.6470   -0.2570 C   0  0  0  0  0
   14.6030    3.3700   -0.6620 C   0  0  0  0  0
   15.4180    4.6600   -0.5540 C   0  0  0  0  0
   16.8670    4.3830   -0.9590 C   0  0  0  0  0
   17.6830    5.6730   -0.8520 C   0  0  0  0  0
  -10.0490    8.6200    0.6430 H   0  0  0  0  0
   -8.1890    7.3560   -0.3580 H   0  0  0  0  0
  -12.7070    5.3960   -0.2320 H   0  0  0  0  0
  -10.8440    4.1350   -1.2330 H   0  0  0  0  0
   -8.6480    4.2520   -2.2640 H   0  0  0  0  0
   -7.5390    5.5950   -1.8960 H   0  0  0  0  0
   -7.2060    4.6920    0.3900 H   0  0  0  0  0
   -8.3150    3.3490    0.0210 H   0  0  0  0  0
   -6.8160    2.6150   -1.8120 H   0  0  0  0  0
   -5.7070    3.9570   -1.4440 H   0  0  0  0  0
   -5.3740    3.0550    0.8420 H   0  0  0  0  0
   -6.4830    1.7120    0.4730 H   0  0  0  0  0
   -4.9840    0.9770   -1.3600 H   0  0  0  0  0
   -3.8750    2.3200   -0.9920 H   0  0  0  0  0
   -3.5420    1.4170    1.2940 H   0  0  0  0  0
   -4.6500    0.0750    0.9250 H   0  0  0  0  0
   -3.1510   -0.6600   -0.9080 H   0  0  0  0  0
   -2.0420    0.6830   -0.5400 H   0  0  0  0  0
   -0.7230   -1.6550   -0.2930 H   0  0  0  0  0
   -0.4200   -1.9180    2.6000 H   0  0  0  0  0
   -0.7240   -4.3500    2.6150 H   0  0  0  0  0
   -2.2060   -3.5760    2.0060 H   0  0  0  0  0
   -1.4260   -6.3280    1.5100 H   0  0  0  0  0
   -1.8110   -7.5750   -0.5820 H   0  0  0  0  0
    0.4520   -7.2210    0.1000 H   0  0  0  0  0
   -1.2810   -4.8960   -1.9510 H   0  0  0  0  0
   -0.5690   -6.8350   -3.1560 H   0  0  0  0  0
   -3.6410   -5.0380   -2.6520 H   0  0  0  0  0
   -3.8350   -7.4180   -2.5450 H   0  0  0  0  0
   -3.1310   -3.8650   -0.5430 H   0  0  0  0  0
   -5.5150   -4.1710   -1.2750 H   0  0  0  0  0
   -5.6090   -5.6210   -0.2470 H   0  0  0  0  0
   -6.3540   -3.6650    0.9040 H   0  0  0  0  0
    1.0650   -3.1740    0.2500 H   0  0  0  0  0
    1.5850   -3.3310    3.1000 H   0  0  0  0  0
    1.8100   -0.9700    2.2260 H   0  0  0  0  0
    1.2220   -0.8470   -0.6140 H   0  0  0  0  0
    3.7040   -2.4480    1.4890 H   0  0  0  0  0
    3.3070   -2.0560   -0.2010 H   0  0  0  0  0
    3.6710    0.3510    0.2710 H   0  0  0  0  0
    4.0680   -0.0410    1.9610 H   0  0  0  0  0
    5.9690   -1.4350    1.1910 H   0  0  0  0  0
    5.5710   -1.0430   -0.4990 H   0  0  0  0  0
    5.9360    1.3640   -0.0260 H   0  0  0  0  0
    6.3330    0.9720    1.6640 H   0  0  0  0  0
    8.2330   -0.4220    0.8940 H   0  0  0  0  0
    7.8360   -0.0310   -0.7970 H   0  0  0  0  0
    8.2000    2.3760   -0.3240 H   0  0  0  0  0
    8.5970    1.9850    1.3660 H   0  0  0  0  0
   10.4980    0.5900    0.5960 H   0  0  0  0  0
   10.1010    0.9820   -1.0940 H   0  0  0  0  0
   10.4650    3.3890   -0.6220 H   0  0  0  0  0
   10.8620    2.9970    1.0680 H   0  0  0  0  0
   12.7620    1.6030    0.2980 H   0  0  0  0  0
   12.3650    1.9950   -1.3920 H   0  0  0  0  0
   12.7290    4.4020   -0.9190 H   0  0  0  0  0
   13.1270    4.0100    0.7710 H   0  0  0  0  0
   15.0270    2.6160    0.0010 H   0  0  0  0  0
   14.6300    3.0070   -1.6890 H   0  0  0  0  0
   14.9940    5.4140   -1.2170 H   0  0  0  0  0
   15.3910    5.0230    0.4730 H   0  0  0  0  0
   17.2920    3.6280   -0.2970 H   0  0  0  0  0
   16.8940    4.0200   -1.9870 H   0  0  0  0  0
   18.7150    5.4750   -1.1410 H   0  0  0  0  0
   17.2580    6.4270   -1.5150 H   0  0  0  0  0
   17.6560    6.0350    0.1760 H   0  0  0  0  0
  1  2  1  0  0  0
  2  3  2  0  0  0
  2  5  1  0  0  0
  3  4  1  0  0  0
  3 50  1  0  0  0
  4  7  2  0  0  0
  4 51  1  0  0  0
  5  6  2  0  0  0
  5 52  1  0  0  0
  6  7  1  0  0  0
  6 53  1  0  0  0
  7  8  1  0  0  0
  8  9  1  0  0  0
  8 54  1  0  0  0
  8 55  1  0  0  0
  9 10  1  0  0  0
  9 56  1  0  0  0
  9 57  1  0  0  0
 10 11  1  0  0  0
 10 58  1  0  0  0
 10 59  1  0  0  0
 11 12  1  0  0  0
 11 60  1  0  0  0
 11 61  1  0  0  0
 12 13  1  0  0  0
 12 62  1  0  0  0
 12 63  1  0  0  0
 13 14  1  0  0  0
 13 64  1  0  0  0
 13 65  1  0  0  0
 14 15  1  0  0  0
 14 66  1  0  0  0
 14 67  1  0  0  0
 15 16  2  0  0  0
 15 17  1  0  0  0
 17 18  1  0  0  0
 17 68  1  0  0  0
 18 19  1  0  0  0
 18 32  1  0  0  0
 18 69  1  0  0  0
 19 20  1  0  0  0
 19 70  1  0  0  0
 19 71  1  0  0  0
 20 21  1  0  0  0
 21 22  1  0  0  0
 21 31  1  0  0  0
 21 72  1  0  0  0
 22 23  1  0  0  0
 22 24  1  0  0  0
 22 73  1  0  0  0
 23 74  1  0  0  0
 24 25  1  0  0  0
 24 26  1  0  0  0
 24 75  1  0  0  0
 25 76  1  0  0  0
 26 27  1  0  0  0
 26 28  1  0  0  0
 26 77  1  0  0  0
 27 78  1  0  0  0
 28 29  1  0  0  0
 28 31  1  0  0  0
 28 79  1  0  0  0
 29 30  1  0  0  0
 29 80  1  0  0  0
 29 81  1  0  0  0
 30 82  1  0  0  0
 32 33  1  0  0  0
 32 34  1  0  0  0
 32 83  1  0  0  0
 33 84  1  0  0  0
 34 35  1  0  0  0
 34 36  1  0  0  0
 34 85  1  0  0  0
 35 86  1  0  0  0
 36 37  1  0  0  0
 36 87  1  0  0  0
 36 88  1  0  0  0
 37 38  1  0  0  0
 37 89  1  0  0  0
 37 90  1  0  0  0
 38 39  1  0  0  0
 38 91  1  0  0  0
 38 92  1  0  0  0
 39 40  1  0  0  0
 39 93  1  0  0  0
 39 94  1  0  0  0
 40 41  1  0  0  0
 40 95  1  0  0  0
 40 96  1  0  0  0
 41 42  1  0  0  0
 41 97  1  0  0  0
 41 98  1  0  0  0
 42 43  1  0  0  0
 42 99  1  0  0  0
 42100  1  0  0  0
 43 44  1  0  0  0
 43101  1  0  0  0
 43102  1  0  0  0
 44 45  1  0  0  0
 44103  1  0  0  0
 44104  1  0  0  0
 45 46  1  0  0  0
 45105  1  0  0  0
 45106  1  0  0  0
 46 47  1  0  0  0
 46107  1  0  0  0
 46108  1  0  0  0
 47 48  1  0  0  0
 47109  1  0  0  0
 47110  1  0  0  0
 48 49  1  0  0  0
 48111  1  0  0  0
 48112  1  0  0  0
 49113  1  0  0  0
 49114  1  0  0  0
 49115  1  0  0  0
M  END
$$$$
