C8M
  CCTOOLS-0919241037

 49 51  0  0  1  0  0  0  0  0999 V2000
   -6.8340    2.8360   -0.6700 N   0  0  0  0  0
   -6.1420    1.8540   -0.0580 C   0  0  0  0  0
   -4.9630    1.2200   -0.7500 C   0  0  0  0  0
   -4.3600    0.1430    0.1540 C   0  0  0  0  0
   -3.2100   -0.4750   -0.5200 N   0  0  0  0  0
   -3.6370   -1.2180   -1.7130 C   0  0  0  0  0
   -2.4640   -1.3420    0.4010 C   0  0  0  0  0
   -1.1470   -1.7670   -0.2520 C   0  0  0  0  0
   -0.2930   -0.6230   -0.4200 O   0  0  0  0  0
    1.0640   -1.0810   -0.2420 C   0  0  0  0  0
    1.9440    0.0370    0.1090 N   0  0  0  0  0
    3.1940    0.2780   -0.4030 C   0  0  0  0  0
    3.9780   -0.3270   -1.2890 N   0  0  0  0  0
    5.1650    0.1620   -1.5800 C   0  0  0  0  0
    5.6350    1.2610   -1.0180 N   0  0  0  0  0
    4.9240    1.9340   -0.1200 C   0  0  0  0  0
    5.4260    3.0830    0.4640 N   0  0  0  0  0
    3.6500    1.4500    0.2240 C   0  0  0  0  0
    2.6720    1.8570    1.0690 N   0  0  0  0  0
    1.6680    1.0320    0.9990 C   0  0  0  0  0
    0.9570   -2.0810    0.9370 C   0  0  0  0  0
    2.0210   -3.0340    0.8960 O   0  0  0  0  0
   -0.4060   -2.7620    0.6610 C   0  0  0  0  0
   -0.2150   -4.0100   -0.0090 O   0  0  0  0  0
    0.3900    1.1570    1.7880 C   0  0  0  0  0
   -6.4690    1.4810    1.0480 O   0  0  0  0  0
   -6.5730    3.1340   -1.5550 H   0  0  0  0  0
   -7.5950    3.2410   -0.2260 H   0  0  0  0  0
   -5.2900    0.7680   -1.6860 H   0  0  0  0  0
   -4.2110    1.9820   -0.9580 H   0  0  0  0  0
   -4.0320    0.5950    1.0900 H   0  0  0  0  0
   -5.1120   -0.6190    0.3620 H   0  0  0  0  0
   -4.1260   -0.5370   -2.4100 H   0  0  0  0  0
   -2.7660   -1.6660   -2.1930 H   0  0  0  0  0
   -4.3350   -2.0030   -1.4220 H   0  0  0  0  0
   -2.2530   -0.7980    1.3220 H   0  0  0  0  0
   -3.0580   -2.2270    0.6300 H   0  0  0  0  0
   -1.3460   -2.2270   -1.2200 H   0  0  0  0  0
    1.4220   -1.5810   -1.1420 H   0  0  0  0  0
    5.7770   -0.3540   -2.3050 H   0  0  0  0  0
    6.3070    3.4070    0.2190 H   0  0  0  0  0
    4.8970    3.5660    1.1190 H   0  0  0  0  0
    0.9440   -1.5570    1.8920 H   0  0  0  0  0
    1.9970   -3.6820    1.6130 H   0  0  0  0  0
   -0.9550   -2.9080    1.5920 H   0  0  0  0  0
    0.2470   -4.6740    0.5210 H   0  0  0  0  0
    0.4940    0.6250    2.7330 H   0  0  0  0  0
    0.1850    2.2090    1.9830 H   0  0  0  0  0
   -0.4330    0.7260    1.2170 H   0  0  0  0  0
  1  2  1  0  0  0
  1 27  1  0  0  0
  1 28  1  0  0  0
  2  3  1  0  0  0
  2 26  2  0  0  0
  3  4  1  0  0  0
  3 29  1  0  0  0
  3 30  1  0  0  0
  4  5  1  0  0  0
  4 31  1  0  0  0
  4 32  1  0  0  0
  5  6  1  0  0  0
  5  7  1  0  0  0
  6 33  1  0  0  0
  6 34  1  0  0  0
  6 35  1  0  0  0
  7  8  1  0  0  0
  7 36  1  0  0  0
  7 37  1  0  0  0
  8  9  1  0  0  0
  8 23  1  0  0  0
  8 38  1  0  0  0
  9 10  1  0  0  0
 10 11  1  0  0  0
 10 21  1  0  0  0
 10 39  1  0  0  0
 11 12  1  0  0  0
 11 20  1  0  0  0
 12 13  2  0  0  0
 12 18  1  0  0  0
 13 14  1  0  0  0
 14 15  2  0  0  0
 14 40  1  0  0  0
 15 16  1  0  0  0
 16 17  1  0  0  0
 16 18  2  0  0  0
 17 41  1  0  0  0
 17 42  1  0  0  0
 18 19  1  0  0  0
 19 20  2  0  0  0
 20 25  1  0  0  0
 21 22  1  0  0  0
 21 23  1  0  0  0
 21 43  1  0  0  0
 22 44  1  0  0  0
 23 24  1  0  0  0
 23 45  1  0  0  0
 24 46  1  0  0  0
 25 47  1  0  0  0
 25 48  1  0  0  0
 25 49  1  0  0  0
M  END
$$$$
