C8P
  CCTOOLS-0919241037

115116  0  0  1  0  0  0  0  0999 V2000
    2.8750    0.4690    2.1090 O   0  0  0  0  0
    2.4720    0.5080    0.9650 C   0  0  0  0  0
    3.0820   -0.3890   -0.0800 C   0  0  0  0  0
    4.1800   -1.2430    0.5590 C   0  0  0  0  0
    4.8000   -2.1540   -0.5030 C   0  0  0  0  0
    5.8970   -3.0070    0.1360 C   0  0  0  0  0
    6.5170   -3.9190   -0.9250 C   0  0  0  0  0
    7.6140   -4.7720   -0.2870 C   0  0  0  0  0
    8.2340   -5.6830   -1.3480 C   0  0  0  0  0
    9.3150   -6.5240   -0.7190 C   0  0  0  0  0
    9.0040   -7.7560   -0.1750 C   0  0  0  0  0
    9.9950   -8.5280    0.4020 C   0  0  0  0  0
   11.2980   -8.0670    0.4340 C   0  0  0  0  0
   11.6100   -6.8350   -0.1100 C   0  0  0  0  0
   10.6190   -6.0660   -0.6910 C   0  0  0  0  0
    1.4740    1.3510    0.6310 N   0  0  0  0  0
    0.8770    2.2190    1.6490 C   0  0  0  0  0
    1.7110    3.4940    1.7850 C   0  0  0  0  0
    1.6550    4.2330    0.5620 O   0  0  0  0  0
    2.4050    5.4490    0.5830 C   0  0  0  0  0
    2.0780    6.2710   -0.6660 C   0  0  0  0  0
    0.6730    6.5250   -0.7170 O   0  0  0  0  0
    2.5010    5.4850   -1.9110 C   0  0  0  0  0
    2.2680    6.2760   -3.0780 O   0  0  0  0  0
    3.9930    5.1520   -1.8080 C   0  0  0  0  0
    4.7530    6.3620   -1.7930 O   0  0  0  0  0
    4.2460    4.3720   -0.5150 C   0  0  0  0  0
    5.7420    4.0880   -0.3750 C   0  0  0  0  0
    5.9650    3.2620    0.7700 O   0  0  0  0  0
    3.8020    5.1470    0.6010 O   0  0  0  0  0
   -0.5500    2.5840    1.2330 C   0  0  0  0  0
   -1.0870    3.5320    2.1580 O   0  0  0  0  0
   -1.4190    1.3250    1.2310 C   0  0  0  0  0
   -0.8810    0.3770    0.3060 O   0  0  0  0  0
   -2.8450    1.6900    0.8150 C   0  0  0  0  0
   -3.7420    0.4560    0.9320 C   0  0  0  0  0
   -5.1690    0.8210    0.5170 C   0  0  0  0  0
   -6.0660   -0.4130    0.6340 C   0  0  0  0  0
   -7.4920   -0.0470    0.2190 C   0  0  0  0  0
   -8.3890   -1.2810    0.3360 C   0  0  0  0  0
   -9.8160   -0.9160   -0.0790 C   0  0  0  0  0
  -10.7130   -2.1500    0.0380 C   0  0  0  0  0
  -12.1390   -1.7850   -0.3770 C   0  0  0  0  0
  -13.0360   -3.0190   -0.2600 C   0  0  0  0  0
  -14.4630   -2.6530   -0.6750 C   0  0  0  0  0
  -15.3600   -3.8870   -0.5580 C   0  0  0  0  0
  -16.7870   -3.5220   -0.9740 C   0  0  0  0  0
  -17.6840   -4.7560   -0.8570 C   0  0  0  0  0
    2.3120   -1.0390   -0.4960 H   0  0  0  0  0
    3.5120    0.2200   -0.8750 H   0  0  0  0  0
    4.9500   -0.5930    0.9740 H   0  0  0  0  0
    3.7500   -1.8520    1.3540 H   0  0  0  0  0
    4.0300   -2.8040   -0.9190 H   0  0  0  0  0
    5.2300   -1.5450   -1.2980 H   0  0  0  0  0
    6.6670   -2.3580    0.5520 H   0  0  0  0  0
    5.4670   -3.6160    0.9310 H   0  0  0  0  0
    5.7470   -4.5680   -1.3410 H   0  0  0  0  0
    6.9470   -3.3100   -1.7210 H   0  0  0  0  0
    8.3840   -4.1220    0.1290 H   0  0  0  0  0
    7.1850   -5.3810    0.5080 H   0  0  0  0  0
    7.4640   -6.3330   -1.7640 H   0  0  0  0  0
    8.6640   -5.0750   -2.1440 H   0  0  0  0  0
    7.9860   -8.1160   -0.2010 H   0  0  0  0  0
    9.7520   -9.4900    0.8270 H   0  0  0  0  0
   12.0730   -8.6690    0.8860 H   0  0  0  0  0
   12.6280   -6.4750   -0.0840 H   0  0  0  0  0
   10.8630   -5.1050   -1.1200 H   0  0  0  0  0
    1.1520    1.3820   -0.2830 H   0  0  0  0  0
    0.8540    1.6960    2.6050 H   0  0  0  0  0
    1.3120    4.1040    2.5960 H   0  0  0  0  0
    2.7450    3.2300    2.0030 H   0  0  0  0  0
    2.1450    6.0210    1.4730 H   0  0  0  0  0
    2.6180    7.2180   -0.6310 H   0  0  0  0  0
    0.3340    7.0160    0.0450 H   0  0  0  0  0
    1.9240    4.5630   -1.9740 H   0  0  0  0  0
    1.3430    6.5300   -3.2020 H   0  0  0  0  0
    4.2910    4.5460   -2.6640 H   0  0  0  0  0
    4.6370    6.9090   -2.5810 H   0  0  0  0  0
    3.6980    3.4310   -0.5450 H   0  0  0  0  0
    6.1000    3.5750   -1.2680 H   0  0  0  0  0
    6.2810    5.0280   -0.2550 H   0  0  0  0  0
    6.8940    3.0400    0.9200 H   0  0  0  0  0
   -0.5370    3.0190    0.2340 H   0  0  0  0  0
   -1.0590    3.2410    3.0800 H   0  0  0  0  0
   -1.4310    0.8900    2.2300 H   0  0  0  0  0
   -0.8400    0.6980   -0.6060 H   0  0  0  0  0
   -3.2230    2.4770    1.4680 H   0  0  0  0  0
   -2.8440    2.0420   -0.2160 H   0  0  0  0  0
   -3.3640   -0.3310    0.2800 H   0  0  0  0  0
   -3.7430    0.1040    1.9640 H   0  0  0  0  0
   -5.5470    1.6090    1.1690 H   0  0  0  0  0
   -5.1680    1.1730   -0.5140 H   0  0  0  0  0
   -5.6880   -1.2000   -0.0180 H   0  0  0  0  0
   -6.0670   -0.7650    1.6660 H   0  0  0  0  0
   -7.8700    0.7400    0.8710 H   0  0  0  0  0
   -7.4920    0.3050   -0.8120 H   0  0  0  0  0
   -8.0110   -2.0680   -0.3160 H   0  0  0  0  0
   -8.3900   -1.6330    1.3680 H   0  0  0  0  0
  -10.1940   -0.1290    0.5730 H   0  0  0  0  0
   -9.8150   -0.5640   -1.1110 H   0  0  0  0  0
  -10.3350   -2.9370   -0.6140 H   0  0  0  0  0
  -10.7140   -2.5020    1.0690 H   0  0  0  0  0
  -12.5170   -0.9970    0.2750 H   0  0  0  0  0
  -12.1390   -1.4330   -1.4090 H   0  0  0  0  0
  -12.6580   -3.8060   -0.9130 H   0  0  0  0  0
  -13.0370   -3.3710    0.7710 H   0  0  0  0  0
  -14.8410   -1.8660   -0.0230 H   0  0  0  0  0
  -14.4620   -2.3010   -1.7070 H   0  0  0  0  0
  -14.9820   -4.6740   -1.2110 H   0  0  0  0  0
  -15.3610   -4.2390    0.4730 H   0  0  0  0  0
  -17.1650   -2.7350   -0.3210 H   0  0  0  0  0
  -16.7860   -3.1700   -2.0050 H   0  0  0  0  0
  -18.7000   -4.4960   -1.1520 H   0  0  0  0  0
  -17.3060   -5.5430   -1.5090 H   0  0  0  0  0
  -17.6840   -5.1080    0.1750 H   0  0  0  0  0
  1  2  2  0  0  0
  2  3  1  0  0  0
  2 16  1  0  0  0
  3  4  1  0  0  0
  3 49  1  0  0  0
  3 50  1  0  0  0
  4  5  1  0  0  0
  4 51  1  0  0  0
  4 52  1  0  0  0
  5  6  1  0  0  0
  5 53  1  0  0  0
  5 54  1  0  0  0
  6  7  1  0  0  0
  6 55  1  0  0  0
  6 56  1  0  0  0
  7  8  1  0  0  0
  7 57  1  0  0  0
  7 58  1  0  0  0
  8  9  1  0  0  0
  8 59  1  0  0  0
  8 60  1  0  0  0
  9 10  1  0  0  0
  9 61  1  0  0  0
  9 62  1  0  0  0
 10 11  2  0  0  0
 10 15  1  0  0  0
 11 12  1  0  0  0
 11 63  1  0  0  0
 12 13  2  0  0  0
 12 64  1  0  0  0
 13 14  1  0  0  0
 13 65  1  0  0  0
 14 15  2  0  0  0
 14 66  1  0  0  0
 15 67  1  0  0  0
 16 17  1  0  0  0
 16 68  1  0  0  0
 17 18  1  0  0  0
 17 31  1  0  0  0
 17 69  1  0  0  0
 18 19  1  0  0  0
 18 70  1  0  0  0
 18 71  1  0  0  0
 19 20  1  0  0  0
 20 21  1  0  0  0
 20 30  1  0  0  0
 20 72  1  0  0  0
 21 22  1  0  0  0
 21 23  1  0  0  0
 21 73  1  0  0  0
 22 74  1  0  0  0
 23 24  1  0  0  0
 23 25  1  0  0  0
 23 75  1  0  0  0
 24 76  1  0  0  0
 25 26  1  0  0  0
 25 27  1  0  0  0
 25 77  1  0  0  0
 26 78  1  0  0  0
 27 28  1  0  0  0
 27 30  1  0  0  0
 27 79  1  0  0  0
 28 29  1  0  0  0
 28 80  1  0  0  0
 28 81  1  0  0  0
 29 82  1  0  0  0
 31 32  1  0  0  0
 31 33  1  0  0  0
 31 83  1  0  0  0
 32 84  1  0  0  0
 33 34  1  0  0  0
 33 35  1  0  0  0
 33 85  1  0  0  0
 34 86  1  0  0  0
 35 36  1  0  0  0
 35 87  1  0  0  0
 35 88  1  0  0  0
 36 37  1  0  0  0
 36 89  1  0  0  0
 36 90  1  0  0  0
 37 38  1  0  0  0
 37 91  1  0  0  0
 37 92  1  0  0  0
 38 39  1  0  0  0
 38 93  1  0  0  0
 38 94  1  0  0  0
 39 40  1  0  0  0
 39 95  1  0  0  0
 39 96  1  0  0  0
 40 41  1  0  0  0
 40 97  1  0  0  0
 40 98  1  0  0  0
 41 42  1  0  0  0
 41 99  1  0  0  0
 41100  1  0  0  0
 42 43  1  0  0  0
 42101  1  0  0  0
 42102  1  0  0  0
 43 44  1  0  0  0
 43103  1  0  0  0
 43104  1  0  0  0
 44 45  1  0  0  0
 44105  1  0  0  0
 44106  1  0  0  0
 45 46  1  0  0  0
 45107  1  0  0  0
 45108  1  0  0  0
 46 47  1  0  0  0
 46109  1  0  0  0
 46110  1  0  0  0
 47 48  1  0  0  0
 47111  1  0  0  0
 47112  1  0  0  0
 48113  1  0  0  0
 48114  1  0  0  0
 48115  1  0  0  0
M  END
$$$$
