CAF
  CCTOOLS-1004241121

 23 22  0  0  1  0  0  0  0  0999 V2000
    2.1790    1.4250    1.1370 N   0  0  0  0  0
    1.8830    0.2380    0.3230 C   0  0  0  0  0
    1.1900    0.6680   -0.9710 C   0  0  0  0  0
    3.1670   -0.4780   -0.0080 C   0  0  0  0  0
    4.2210    0.1080    0.0630 O   0  0  0  0  0
    3.1390   -1.7670   -0.3810 O   0  0  0  0  0
   -0.3850    1.4770   -0.5750 S   0  0  0  0  0
   -1.6940   -0.2360    0.0300 AS  0  0  0  0  0
   -0.9950   -1.0440    1.7090 C   0  0  0  0  0
   -3.5480    0.4200    0.3310 C   0  0  0  0  0
   -1.7000   -1.3270   -1.1180 O   0  0  0  0  0
    2.6820    2.1150    0.6000 H   0  0  0  0  0
    1.3350    1.8160    1.5280 H   0  0  0  0  0
    1.2270   -0.4300    0.8820 H   0  0  0  0  0
    1.8300    1.3640   -1.5120 H   0  0  0  0  0
    1.0020   -0.2090   -1.5910 H   0  0  0  0  0
    3.9880   -2.1830   -0.5830 H   0  0  0  0  0
   -0.8670   -0.2660    2.4610 H   0  0  0  0  0
   -1.7010   -1.7900    2.0750 H   0  0  0  0  0
   -0.0350   -1.5200    1.5110 H   0  0  0  0  0
   -3.9310    0.8620   -0.5890 H   0  0  0  0  0
   -4.1850   -0.4140    0.6260 H   0  0  0  0  0
   -3.5440    1.1710    1.1210 H   0  0  0  0  0
  1  2  1  0  0  0
  1 12  1  0  0  0
  1 13  1  0  0  0
  2  3  1  0  0  0
  2  4  1  0  0  0
  2 14  1  0  0  0
  3  7  1  0  0  0
  3 15  1  0  0  0
  3 16  1  0  0  0
  4  5  2  0  0  0
  4  6  1  0  0  0
  6 17  1  0  0  0
  7  8  1  0  0  0
  8  9  1  0  0  0
  8 10  1  0  0  0
  8 11  2  0  0  0
  9 18  1  0  0  0
  9 19  1  0  0  0
  9 20  1  0  0  0
 10 21  1  0  0  0
 10 22  1  0  0  0
 10 23  1  0  0  0
M  END
$$$$
