CAP
  CCTOOLS-0919241037

 35 34  0  0  1  0  0  0  0  0999 V2000
   -0.3970   -0.1180   -2.3230 C   0  0  0  0  0
    0.3750    0.3740   -1.0970 C   0  0  0  0  0
   -0.2340   -0.2320    0.1670 C   0  0  0  0  0
    0.4410    0.3710    1.3990 C   0  0  0  0  0
   -0.2610   -0.1270    2.6630 C   0  0  0  0  0
    1.8180   -0.0460   -1.2110 C   0  0  0  0  0
    0.1720    0.4480   -3.5040 O   0  0  0  0  0
    0.2980    1.7990   -1.0270 O   0  0  0  0  0
   -1.6340    0.0510    0.2040 O   0  0  0  0  0
    1.8140   -0.0220    1.4310 O   0  0  0  0  0
    0.3690    0.4360    3.8140 O   0  0  0  0  0
    2.6910    0.7880   -1.2290 O   0  0  0  0  0
    2.1330   -1.3480   -1.2910 O   0  0  0  0  0
   -0.6840   -0.1090   -4.7480 P   0  0  0  0  0
   -0.4170   -0.1280    5.1000 P   0  0  0  0  0
   -2.0980    0.3020   -4.5970 O   0  0  0  0  0
   -0.0940    0.4920   -6.1200 O   0  0  0  0  0
   -0.5940   -1.7160   -4.7840 O   0  0  0  0  0
   -0.3280   -1.6050    5.1230 O   0  0  0  0  0
    0.2450    0.4700    6.4400 O   0  0  0  0  0
   -1.9620    0.3150    5.0220 O   0  0  0  0  0
   -0.3380   -1.2050   -2.3760 H   0  0  0  0  0
   -1.4400    0.1860   -2.2410 H   0  0  0  0  0
   -0.0830   -1.3110    0.1620 H   0  0  0  0  0
    0.3760    1.4580    1.3530 H   0  0  0  0  0
   -1.3090    0.1730    2.6390 H   0  0  0  0  0
   -0.1970   -1.2140    2.7100 H   0  0  0  0  0
   -0.6300    2.0220   -0.8780 H   0  0  0  0  0
   -1.7240    1.0140    0.2080 H   0  0  0  0  0
    1.8260   -0.9880    1.4720 H   0  0  0  0  0
    3.0590   -1.6180   -1.3640 H   0  0  0  0  0
   -0.6340    0.1340   -6.8370 H   0  0  0  0  0
    0.3400   -1.9410   -4.8830 H   0  0  0  0  0
   -0.2540    0.1080    7.1850 H   0  0  0  0  0
   -1.9760    1.2810    5.0090 H   0  0  0  0  0
  1  2  1  0  0  0
  1  7  1  0  0  0
  1 22  1  0  0  0
  1 23  1  0  0  0
  2  3  1  0  0  0
  2  6  1  0  0  0
  2  8  1  0  0  0
  3  4  1  0  0  0
  3  9  1  0  0  0
  3 24  1  0  0  0
  4  5  1  0  0  0
  4 10  1  0  0  0
  4 25  1  0  0  0
  5 11  1  0  0  0
  5 26  1  0  0  0
  5 27  1  0  0  0
  6 12  2  0  0  0
  6 13  1  0  0  0
  7 14  1  0  0  0
  8 28  1  0  0  0
  9 29  1  0  0  0
 10 30  1  0  0  0
 11 15  1  0  0  0
 13 31  1  0  0  0
 14 16  2  0  0  0
 14 17  1  0  0  0
 14 18  1  0  0  0
 15 19  2  0  0  0
 15 20  1  0  0  0
 15 21  1  0  0  0
 17 32  1  0  0  0
 18 33  1  0  0  0
 20 34  1  0  0  0
 21 35  1  0  0  0
M  END
$$$$
