CAT
  CCTOOLS-0919241037

 50 49  0  0  0  0  0  0  0  0999 V2000
   -4.7170    0.7260   -0.0030 C   0  0  0  0  0
   -3.4910   -0.1890    0.0010 C   0  0  0  0  0
   -2.2190    0.6620   -0.0020 C   0  0  0  0  0
   -0.9930   -0.2530    0.0010 C   0  0  0  0  0
    0.2790    0.5980   -0.0020 C   0  0  0  0  0
    1.5050   -0.3170    0.0010 C   0  0  0  0  0
    2.7760    0.5340   -0.0020 C   0  0  0  0  0
    4.0020   -0.3810    0.0010 C   0  0  0  0  0
    5.2740    0.4700   -0.0020 C   0  0  0  0  0
    6.5000   -0.4450    0.0020 C   0  0  0  0  0
    7.7710    0.4060   -0.0010 C   0  0  0  0  0
    8.9980   -0.5090    0.0020 C   0  0  0  0  0
   -5.9590   -0.9350    1.2030 C   0  0  0  0  0
   -7.1150    0.7870   -0.0030 C   0  0  0  0  0
   -5.9590   -0.9440   -1.1960 C   0  0  0  0  0
   -5.9380   -0.0920    0.0000 N   0  3  0  0  0
   -4.7010    1.3580    0.8850 H   0  0  0  0  0
   -4.7010    1.3520   -0.8950 H   0  0  0  0  0
   -3.5070   -0.8220   -0.8870 H   0  0  0  0  0
   -3.5070   -0.8150    0.8930 H   0  0  0  0  0
   -2.2030    1.2940    0.8850 H   0  0  0  0  0
   -2.2030    1.2880   -0.8950 H   0  0  0  0  0
   -1.0090   -0.8860   -0.8870 H   0  0  0  0  0
   -1.0090   -0.8790    0.8930 H   0  0  0  0  0
    0.2950    1.2300    0.8860 H   0  0  0  0  0
    0.2950    1.2240   -0.8940 H   0  0  0  0  0
    1.4890   -0.9500   -0.8870 H   0  0  0  0  0
    1.4890   -0.9430    0.8930 H   0  0  0  0  0
    2.7920    1.1660    0.8860 H   0  0  0  0  0
    2.7920    1.1600   -0.8940 H   0  0  0  0  0
    3.9860   -1.0140   -0.8860 H   0  0  0  0  0
    3.9860   -1.0070    0.8940 H   0  0  0  0  0
    5.2900    1.1020    0.8860 H   0  0  0  0  0
    5.2900    1.0960   -0.8940 H   0  0  0  0  0
    6.4840   -1.0770   -0.8860 H   0  0  0  0  0
    6.4840   -1.0710    0.8940 H   0  0  0  0  0
    7.7880    1.0380    0.8860 H   0  0  0  0  0
    7.7880    1.0320   -0.8940 H   0  0  0  0  0
    8.9820   -1.1350    0.8940 H   0  0  0  0  0
    8.9820   -1.1410   -0.8860 H   0  0  0  0  0
    9.9040    0.0970    0.0000 H   0  0  0  0  0
   -5.9430   -0.3030    2.0900 H   0  0  0  0  0
   -6.8650   -1.5420    1.2050 H   0  0  0  0  0
   -5.0860   -1.5870    1.2050 H   0  0  0  0  0
   -7.0990    1.4130   -0.8950 H   0  0  0  0  0
   -8.0210    0.1810   -0.0010 H   0  0  0  0  0
   -7.0990    1.4190    0.8850 H   0  0  0  0  0
   -5.0860   -1.5960   -1.1940 H   0  0  0  0  0
   -6.8650   -1.5500   -1.1940 H   0  0  0  0  0
   -5.9430   -0.3180   -2.0880 H   0  0  0  0  0
  1  2  1  0  0  0
  1 16  1  0  0  0
  1 17  1  0  0  0
  1 18  1  0  0  0
  2  3  1  0  0  0
  2 19  1  0  0  0
  2 20  1  0  0  0
  3  4  1  0  0  0
  3 21  1  0  0  0
  3 22  1  0  0  0
  4  5  1  0  0  0
  4 23  1  0  0  0
  4 24  1  0  0  0
  5  6  1  0  0  0
  5 25  1  0  0  0
  5 26  1  0  0  0
  6  7  1  0  0  0
  6 27  1  0  0  0
  6 28  1  0  0  0
  7  8  1  0  0  0
  7 29  1  0  0  0
  7 30  1  0  0  0
  8  9  1  0  0  0
  8 31  1  0  0  0
  8 32  1  0  0  0
  9 10  1  0  0  0
  9 33  1  0  0  0
  9 34  1  0  0  0
 10 11  1  0  0  0
 10 35  1  0  0  0
 10 36  1  0  0  0
 11 12  1  0  0  0
 11 37  1  0  0  0
 11 38  1  0  0  0
 12 39  1  0  0  0
 12 40  1  0  0  0
 12 41  1  0  0  0
 13 16  1  0  0  0
 13 42  1  0  0  0
 13 43  1  0  0  0
 13 44  1  0  0  0
 14 16  1  0  0  0
 14 45  1  0  0  0
 14 46  1  0  0  0
 14 47  1  0  0  0
 15 16  1  0  0  0
 15 48  1  0  0  0
 15 49  1  0  0  0
 15 50  1  0  0  0
M  CHG  1  16   1
M  END
$$$$
