CB3
  CCTOOLS-0919241037

 58 60  0  0  1  0  0  0  0  0999 V2000
    1.9820    0.6770   -6.2030 N   0  0  0  0  0
    3.1130   -0.0340   -5.9550 C   0  0  0  0  0
    4.2250    0.2240   -6.7070 N   0  0  0  0  0
    3.1870   -0.9580   -5.0210 N   0  0  0  0  0
    2.1370   -1.2650   -4.2470 C   0  0  0  0  0
    2.2250   -2.1240   -3.3860 O   0  0  0  0  0
    0.8720   -0.5370   -4.4610 C   0  0  0  0  0
   -0.2640   -0.7960   -3.6990 C   0  0  0  0  0
   -1.4200   -0.0860   -3.9410 C   0  0  0  0  0
   -1.4560    0.8790   -4.9360 C   0  0  0  0  0
   -0.3380    1.1460   -5.6990 C   0  0  0  0  0
    0.8340    0.4410   -5.4690 C   0  0  0  0  0
   -2.6530   -0.3610   -3.1200 C   0  0  0  0  0
   -2.6570    0.5060   -1.9390 N   0  0  0  0  0
   -0.8660   -0.7760    1.5910 C   0  0  0  0  0
   -0.9580   -1.6420    0.4970 C   0  0  0  0  0
   -1.5500   -1.2150   -0.6680 C   0  0  0  0  0
   -2.0580    0.0770   -0.7600 C   0  0  0  0  0
   -1.9630    0.9440    0.3250 C   0  0  0  0  0
   -1.3770    0.5210    1.4960 C   0  0  0  0  0
   -0.2320   -1.2310    2.8420 C   0  0  0  0  0
    0.2110   -2.3600    2.9240 O   0  0  0  0  0
   -0.1440   -0.3950    3.8960 N   0  0  0  0  0
    0.4850   -0.8470    5.1390 C   0  0  0  0  0
    1.1280    0.3460    5.8480 C   0  0  0  0  0
    2.1860    0.9710    4.9380 C   0  0  0  0  0
    2.8190    2.1470    5.6370 C   0  0  0  0  0
    2.4600    2.4540    6.7490 O   0  0  0  0  0
    3.7810    2.8540    5.0230 O   0  0  0  0  0
   -0.5570   -1.4620    6.0360 C   0  0  0  0  0
   -0.2490   -2.3430    6.8040 O   0  0  0  0  0
   -1.8270   -1.0330    5.9810 O   0  0  0  0  0
   -3.2910    1.8250   -2.0020 C   0  0  0  0  0
   -4.6710    1.7300   -1.4990 C   0  0  0  0  0
   -5.7720    1.6550   -1.0980 C   0  0  0  0  0
    1.9800    1.3510   -6.9000 H   0  0  0  0  0
    5.0450   -0.2680   -6.5460 H   0  0  0  0  0
    4.1930    0.8980   -7.4040 H   0  0  0  0  0
   -0.2390   -1.5480   -2.9240 H   0  0  0  0  0
   -2.3690    1.4280   -5.1160 H   0  0  0  0  0
   -0.3760    1.9000   -6.4710 H   0  0  0  0  0
   -3.5410   -0.1620   -3.7200 H   0  0  0  0  0
   -2.6540   -1.4040   -2.8040 H   0  0  0  0  0
   -0.5640   -2.6450    0.5670 H   0  0  0  0  0
   -1.6220   -1.8840   -1.5130 H   0  0  0  0  0
   -2.3580    1.9460    0.2510 H   0  0  0  0  0
   -1.3080    1.1920    2.3390 H   0  0  0  0  0
   -0.4980    0.5050    3.8310 H   0  0  0  0  0
    1.2510   -1.5880    4.9100 H   0  0  0  0  0
    0.3620    1.0870    6.0770 H   0  0  0  0  0
    1.5960    0.0100    6.7730 H   0  0  0  0  0
    2.9520    0.2300    4.7090 H   0  0  0  0  0
    1.7180    1.3070    4.0130 H   0  0  0  0  0
    4.1870    3.6080    5.4720 H   0  0  0  0  0
   -2.4970   -1.4280    6.5560 H   0  0  0  0  0
   -2.7280    2.5280   -1.3880 H   0  0  0  0  0
   -3.3030    2.1740   -3.0350 H   0  0  0  0  0
   -6.7560    1.5870   -0.7390 H   0  0  0  0  0
  1  2  1  0  0  0
  1 12  1  0  0  0
  1 36  1  0  0  0
  2  3  1  0  0  0
  2  4  2  0  0  0
  3 37  1  0  0  0
  3 38  1  0  0  0
  4  5  1  0  0  0
  5  6  2  0  0  0
  5  7  1  0  0  0
  7  8  2  0  0  0
  7 12  1  0  0  0
  8  9  1  0  0  0
  8 39  1  0  0  0
  9 10  2  0  0  0
  9 13  1  0  0  0
 10 11  1  0  0  0
 10 40  1  0  0  0
 11 12  2  0  0  0
 11 41  1  0  0  0
 13 14  1  0  0  0
 13 42  1  0  0  0
 13 43  1  0  0  0
 14 18  1  0  0  0
 14 33  1  0  0  0
 15 16  2  0  0  0
 15 20  1  0  0  0
 15 21  1  0  0  0
 16 17  1  0  0  0
 16 44  1  0  0  0
 17 18  2  0  0  0
 17 45  1  0  0  0
 18 19  1  0  0  0
 19 20  2  0  0  0
 19 46  1  0  0  0
 20 47  1  0  0  0
 21 22  2  0  0  0
 21 23  1  0  0  0
 23 24  1  0  0  0
 23 48  1  0  0  0
 24 25  1  0  0  0
 24 30  1  0  0  0
 24 49  1  0  0  0
 25 26  1  0  0  0
 25 50  1  0  0  0
 25 51  1  0  0  0
 26 27  1  0  0  0
 26 52  1  0  0  0
 26 53  1  0  0  0
 27 28  2  0  0  0
 27 29  1  0  0  0
 29 54  1  0  0  0
 30 31  2  0  0  0
 30 32  1  0  0  0
 32 55  1  0  0  0
 33 34  1  0  0  0
 33 56  1  0  0  0
 33 57  1  0  0  0
 34 35  3  0  0  0
 35 58  1  0  0  0
M  END
$$$$
