CBE
  CCTOOLS-0919241037

 29 30  0  0  0  0  0  0  0  0999 V2000
    0.0000    0.0000    0.0000 C   0  0  0  0  0
    0.0000    0.0000    0.0000 C   0  0  0  0  0
    0.0000    0.0000    0.0000 C   0  0  0  0  0
    0.0000    0.0000    0.0000 S   0  0  0  0  0
    0.0000    0.0000    0.0000 C   0  0  0  0  0
    0.0000    0.0000    0.0000 C   0  0  0  0  0
    0.0000    0.0000    0.0000 O   0  0  0  0  0
    0.0000    0.0000    0.0000 C   0  0  0  0  0
    0.0000    0.0000    0.0000 O   0  0  0  0  0
    0.0000    0.0000    0.0000 N   0  0  0  0  0
    0.0000    0.0000    0.0000 C   0  0  0  0  0
    0.0000    0.0000    0.0000 C   0  0  0  0  0
    0.0000    0.0000    0.0000 C   0  0  0  0  0
    0.0000    0.0000    0.0000 C   0  0  0  0  0
    0.0000    0.0000    0.0000 C   0  0  0  0  0
    0.0000    0.0000    0.0000 C   0  0  0  0  0
    0.0000    0.0000    0.0000 H   0  0  0  0  0
    0.0000    0.0000    0.0000 H   0  0  0  0  0
    0.0000    0.0000    0.0000 H   0  0  0  0  0
    0.0000    0.0000    0.0000 H   0  0  0  0  0
    0.0000    0.0000    0.0000 H   0  0  0  0  0
    0.0000    0.0000    0.0000 H   0  0  0  0  0
    0.0000    0.0000    0.0000 H   0  0  0  0  0
    0.0000    0.0000    0.0000 H   0  0  0  0  0
    0.0000    0.0000    0.0000 H   0  0  0  0  0
    0.0000    0.0000    0.0000 H   0  0  0  0  0
    0.0000    0.0000    0.0000 H   0  0  0  0  0
    0.0000    0.0000    0.0000 H   0  0  0  0  0
    0.0000    0.0000    0.0000 H   0  0  0  0  0
  1  2  1  0  0  0
  1 17  1  0  0  0
  1 18  1  0  0  0
  1 19  1  0  0  0
  2  3  2  0  0  0
  2  7  1  0  0  0
  3  4  1  0  0  0
  3  8  1  0  0  0
  4  5  1  0  0  0
  5  6  1  0  0  0
  5 20  1  0  0  0
  5 21  1  0  0  0
  6  7  1  0  0  0
  6 22  1  0  0  0
  6 23  1  0  0  0
  8  9  2  0  0  0
  8 10  1  0  0  0
 10 11  1  0  0  0
 10 24  1  0  0  0
 11 12  1  0  0  0
 11 16  2  0  0  0
 12 13  2  0  0  0
 12 25  1  0  0  0
 13 14  1  0  0  0
 13 26  1  0  0  0
 14 15  2  0  0  0
 14 27  1  0  0  0
 15 16  1  0  0  0
 15 28  1  0  0  0
 16 29  1  0  0  0
M  END
$$$$
