CBJ
  CCTOOLS-0919241037

 38 41  0  0  0  0  0  0  0  0999 V2000
   -0.3860   -3.2550    1.0620 O   0  0  0  0  0
    0.4380   -2.4320    0.7210 C   0  0  0  0  0
    1.8320   -2.2990    1.2580 C   0  0  0  0  0
    2.3650   -2.9780    2.1100 O   0  0  0  0  0
    2.4120   -1.1610    0.5210 C   0  0  0  0  0
    3.6600   -0.5400    0.5570 C   0  0  0  0  0
    3.9160    0.5330   -0.2750 C   0  0  0  0  0
    5.6060    1.3800   -0.2320 BR  0  0  0  0  0
    2.9350    0.9880   -1.1400 C   0  0  0  0  0
    1.6940    0.3790   -1.1840 C   0  0  0  0  0
    1.4160   -0.7000   -0.3560 C   0  0  0  0  0
    0.2690   -1.4790   -0.2110 N   0  0  0  0  0
   -0.9640   -1.2810   -0.9760 C   0  0  0  0  0
   -1.9070   -0.4060   -0.1920 C   0  0  0  0  0
   -1.4940    0.1660    0.9910 C   0  0  0  0  0
   -2.3560    0.9700    1.7180 C   0  0  0  0  0
   -3.6430    1.2090    1.2640 C   0  0  0  0  0
   -4.4730    2.0000    1.9980 O   0  0  0  0  0
   -5.6280    2.5180    1.3280 C   0  0  0  0  0
   -6.2840    1.3710    0.5470 C   0  0  0  0  0
   -5.3300    0.8650   -0.3930 O   0  0  0  0  0
   -4.0750    0.6410    0.0720 C   0  0  0  0  0
   -3.2010   -0.1690   -0.6660 C   0  0  0  0  0
   -3.6460   -0.7740   -1.9350 C   0  0  0  0  0
   -4.2530   -1.8270   -1.9260 O   0  0  0  0  0
   -3.3800   -0.1600   -3.1040 O   0  0  0  0  0
    4.4240   -0.8970    1.2330 H   0  0  0  0  0
    3.1410    1.8270   -1.7880 H   0  0  0  0  0
    0.9380    0.7450   -1.8630 H   0  0  0  0  0
   -0.7290   -0.8010   -1.9270 H   0  0  0  0  0
   -1.4350   -2.2460   -1.1630 H   0  0  0  0  0
   -0.4920   -0.0140    1.3530 H   0  0  0  0  0
   -2.0220    1.4140    2.6450 H   0  0  0  0  0
   -6.3320    2.9140    2.0600 H   0  0  0  0  0
   -5.3300    3.3080    0.6390 H   0  0  0  0  0
   -6.5770    0.5780    1.2350 H   0  0  0  0  0
   -7.1620    1.7420    0.0180 H   0  0  0  0  0
   -3.6260   -0.6300   -3.9130 H   0  0  0  0  0
  1  2  2  0  0  0
  2  3  1  0  0  0
  2 12  1  0  0  0
  3  4  2  0  0  0
  3  5  1  0  0  0
  5  6  2  0  0  0
  5 11  1  0  0  0
  6  7  1  0  0  0
  6 27  1  0  0  0
  7  8  1  0  0  0
  7  9  2  0  0  0
  9 10  1  0  0  0
  9 28  1  0  0  0
 10 11  2  0  0  0
 10 29  1  0  0  0
 11 12  1  0  0  0
 12 13  1  0  0  0
 13 14  1  0  0  0
 13 30  1  0  0  0
 13 31  1  0  0  0
 14 15  2  0  0  0
 14 23  1  0  0  0
 15 16  1  0  0  0
 15 32  1  0  0  0
 16 17  2  0  0  0
 16 33  1  0  0  0
 17 18  1  0  0  0
 17 22  1  0  0  0
 18 19  1  0  0  0
 19 20  1  0  0  0
 19 34  1  0  0  0
 19 35  1  0  0  0
 20 21  1  0  0  0
 20 36  1  0  0  0
 20 37  1  0  0  0
 21 22  1  0  0  0
 22 23  2  0  0  0
 23 24  1  0  0  0
 24 25  2  0  0  0
 24 26  1  0  0  0
 26 38  1  0  0  0
M  END
$$$$
