CCS
  CCTOOLS-1004241121

 20 19  0  0  1  0  0  0  0  0999 V2000
    1.7230   -0.3150    1.9100 N   0  0  0  0  0
    0.4150    0.3530    1.9360 C   0  0  0  0  0
   -0.4150   -0.1030    0.7360 C   0  0  0  0  0
    0.4510    0.3240   -0.7980 S   0  0  0  0  0
   -0.7290   -0.3160   -2.0170 C   0  0  0  0  0
   -0.2030   -0.0640   -3.4060 C   0  0  0  0  0
    0.8590    0.4900   -3.5590 O   0  0  0  0  0
   -0.9150   -0.4570   -4.4740 O   0  0  0  0  0
   -0.3040   -0.0020    3.2110 C   0  0  0  0  0
   -0.1070   -1.0710    3.7380 O   0  0  0  0  0
   -1.1650    0.8680    3.7610 O   0  0  0  0  0
    2.1230   -0.1340    1.0010 H   0  0  0  0  0
    1.5420   -1.3060    1.9550 H   0  0  0  0  0
    0.5580    1.4330    1.8890 H   0  0  0  0  0
   -0.5580   -1.1830    0.7830 H   0  0  0  0  0
   -1.3850    0.3920    0.7560 H   0  0  0  0  0
   -0.8600   -1.3880   -1.8660 H   0  0  0  0  0
   -1.6870    0.1870   -1.8940 H   0  0  0  0  0
   -0.5770   -0.2950   -5.3660 H   0  0  0  0  0
   -1.6280    0.6400    4.5790 H   0  0  0  0  0
  1  2  1  0  0  0
  1 12  1  0  0  0
  1 13  1  0  0  0
  2  3  1  0  0  0
  2  9  1  0  0  0
  2 14  1  0  0  0
  3  4  1  0  0  0
  3 15  1  0  0  0
  3 16  1  0  0  0
  4  5  1  0  0  0
  5  6  1  0  0  0
  5 17  1  0  0  0
  5 18  1  0  0  0
  6  7  2  0  0  0
  6  8  1  0  0  0
  8 19  1  0  0  0
  9 10  2  0  0  0
  9 11  1  0  0  0
 11 20  1  0  0  0
M  END
$$$$
