CDK
  CCTOOLS-0919241037

 50 52  0  0  0  0  0  0  0  0999 V2000
    4.5600   -1.8170   -1.3070 C   0  0  0  0  0
    5.4640   -0.9660   -0.4540 C   0  0  0  0  0
    6.7930   -1.2100   -0.3570 N   0  0  0  0  0
    7.4150   -2.3200   -1.0830 C   0  0  0  0  0
    7.5190   -0.3980    0.4260 C   0  0  0  0  0
    8.7170   -0.4610    0.6350 O   0  0  0  0  0
    6.4130    0.7500    1.0770 S   0  0  0  0  0
    4.9970    0.0800    0.2480 C   0  0  0  0  0
    3.6050    0.5650    0.3150 C   0  0  0  0  0
    2.6390   -0.0500   -0.3690 N   0  0  0  0  0
    3.2750    1.6750    1.1040 C   0  0  0  0  0
    1.9580    2.0910    1.1360 C   0  0  0  0  0
    1.0530    1.4350    0.4260 N   0  0  0  0  0
    1.3900    0.3850   -0.3080 C   0  0  0  0  0
    0.4110   -0.2760   -1.0310 N   0  0  0  0  0
   -0.9300    0.0940   -0.8920 C   0  0  0  0  0
   -1.7920    0.0110   -1.9780 C   0  0  0  0  0
   -3.1160    0.3770   -1.8360 C   0  0  0  0  0
   -1.4050    0.5390    0.3350 C   0  0  0  0  0
   -2.7300    0.9040    0.4700 C   0  0  0  0  0
   -3.5840    0.8250   -0.6150 C   0  0  0  0  0
   -5.2740    1.2920   -0.4390 S   0  0  0  0  0
   -5.3310    2.1860    0.6640 O   0  0  0  0  0
   -5.7340    1.6320   -1.7390 O   0  0  0  0  0
   -6.1120   -0.0630    0.0140 N   0  0  0  0  0
   -5.8430   -0.6910    1.3100 C   0  0  0  0  0
   -6.9720   -1.6670    1.6480 C   0  0  0  0  0
   -6.9770   -2.7370    0.7020 O   0  0  0  0  0
   -7.9990   -3.7100    0.9290 C   0  0  0  0  0
    5.1460   -2.6010   -1.7870 H   0  0  0  0  0
    3.7910   -2.2700   -0.6810 H   0  0  0  0  0
    4.0900   -1.1960   -2.0690 H   0  0  0  0  0
    7.7410   -1.9760   -2.0640 H   0  0  0  0  0
    8.2750   -2.6850   -0.5210 H   0  0  0  0  0
    6.6910   -3.1270   -1.2030 H   0  0  0  0  0
    4.0320    2.1930    1.6740 H   0  0  0  0  0
    1.6700    2.9430    1.7340 H   0  0  0  0  0
    0.6550   -0.9950   -1.6350 H   0  0  0  0  0
   -1.4270   -0.3390   -2.9320 H   0  0  0  0  0
   -0.7390    0.6000    1.1830 H   0  0  0  0  0
   -3.7870    0.3130   -2.6810 H   0  0  0  0  0
   -3.1000    1.2500    1.4240 H   0  0  0  0  0
   -6.7810   -0.4400   -0.5780 H   0  0  0  0  0
   -4.8980   -1.2320    1.2620 H   0  0  0  0  0
   -5.7830    0.0770    2.0810 H   0  0  0  0  0
   -6.8180   -2.0680    2.6500 H   0  0  0  0  0
   -7.9280   -1.1430    1.6090 H   0  0  0  0  0
   -7.8660   -4.1530    1.9160 H   0  0  0  0  0
   -8.9760   -3.2290    0.8750 H   0  0  0  0  0
   -7.9350   -4.4880    0.1690 H   0  0  0  0  0
  1  2  1  0  0  0
  1 30  1  0  0  0
  1 31  1  0  0  0
  1 32  1  0  0  0
  2  3  1  0  0  0
  2  8  2  0  0  0
  3  4  1  0  0  0
  3  5  1  0  0  0
  4 33  1  0  0  0
  4 34  1  0  0  0
  4 35  1  0  0  0
  5  6  2  0  0  0
  5  7  1  0  0  0
  7  8  1  0  0  0
  8  9  1  0  0  0
  9 10  2  0  0  0
  9 11  1  0  0  0
 10 14  1  0  0  0
 11 12  2  0  0  0
 11 36  1  0  0  0
 12 13  1  0  0  0
 12 37  1  0  0  0
 13 14  2  0  0  0
 14 15  1  0  0  0
 15 16  1  0  0  0
 15 38  1  0  0  0
 16 17  1  0  0  0
 16 19  2  0  0  0
 17 18  2  0  0  0
 17 39  1  0  0  0
 18 21  1  0  0  0
 18 41  1  0  0  0
 19 20  1  0  0  0
 19 40  1  0  0  0
 20 21  2  0  0  0
 20 42  1  0  0  0
 21 22  1  0  0  0
 22 23  2  0  0  0
 22 24  2  0  0  0
 22 25  1  0  0  0
 25 26  1  0  0  0
 25 43  1  0  0  0
 26 27  1  0  0  0
 26 44  1  0  0  0
 26 45  1  0  0  0
 27 28  1  0  0  0
 27 46  1  0  0  0
 27 47  1  0  0  0
 28 29  1  0  0  0
 29 48  1  0  0  0
 29 49  1  0  0  0
 29 50  1  0  0  0
M  END
$$$$
