CDL
  CCTOOLS-0919241037

256255  0  0  1  0  0  0  0  0999 V2000
    0.1220   -7.4530    0.4200 C   0  0  0  0  0
    0.2290   -6.7280    1.6470 O   0  0  0  0  0
    1.3650   -8.3240    0.2310 C   0  0  0  0  0
    2.5140   -7.4880    0.0780 O   0  0  0  0  0
    3.9990   -8.0700   -0.1410 P   0  0  0  0  0
    4.3430   -9.0500    1.0030 O   0  0  0  0  0
    4.0660   -8.8140   -1.4940 O   0  5  0  0  0
    5.0560   -6.8560   -0.1440 O   0  0  0  0  0
    6.4700   -7.0540   -0.2130 C   0  0  0  0  0
    7.1770   -5.6980   -0.1950 C   0  0  0  0  0
    6.8340   -4.9570   -1.3960 O   0  0  0  0  0
    6.8150   -3.6180   -1.3010 C   0  0  0  0  0
    7.0770   -3.0830   -0.2500 O   0  0  0  0  0
    6.4680   -2.7820   -2.5060 C   0  0  0  0  0
    6.5190   -1.3000   -2.1310 C   0  0  0  0  0
    6.1670   -0.4510   -3.3540 C   0  0  0  0  0
    6.2180    1.0310   -2.9780 C   0  0  0  0  0
    5.8650    1.8790   -4.2020 C   0  0  0  0  0
    5.9170    3.3620   -3.8260 C   0  0  0  0  0
    5.5640    4.2100   -5.0500 C   0  0  0  0  0
    5.6160    5.6930   -4.6740 C   0  0  0  0  0
    5.2630    6.5410   -5.8970 C   0  0  0  0  0
    5.3140    8.0230   -5.5220 C   0  0  0  0  0
    4.9620    8.8720   -6.7450 C   0  0  0  0  0
    5.0130   10.3540   -6.3700 C   0  0  0  0  0
    4.6600   11.2030   -7.5930 C   0  0  0  0  0
    4.7120   12.6850   -7.2180 C   0  0  0  0  0
    4.3590   13.5340   -8.4410 C   0  0  0  0  0
    4.4100   15.0160   -8.0650 C   0  0  0  0  0
    4.0580   15.8650   -9.2890 C   0  0  0  0  0
    8.6910   -5.9130   -0.1440 C   0  0  0  0  0
    9.3580   -4.6300   -0.0070 O   0  0  0  0  0
   10.6990   -4.6430    0.0530 C   0  0  0  0  0
   11.2960   -5.6920   -0.0070 O   0  0  0  0  0
   11.4590   -3.3500    0.1940 C   0  0  0  0  0
   12.9600   -3.6440    0.2380 C   0  0  0  0  0
   13.7330   -2.3310    0.3820 C   0  0  0  0  0
   15.2340   -2.6250    0.4260 C   0  0  0  0  0
   16.0060   -1.3120    0.5700 C   0  0  0  0  0
   17.5070   -1.6050    0.6150 C   0  0  0  0  0
   18.2790   -0.2920    0.7580 C   0  0  0  0  0
   19.7800   -0.5860    0.8030 C   0  0  0  0  0
   20.5530    0.7270    0.9470 C   0  0  0  0  0
   22.0540    0.4330    0.9910 C   0  0  0  0  0
   22.8260    1.7460    1.1350 C   0  0  0  0  0
   24.3270    1.4520    1.1790 C   0  0  0  0  0
   25.1000    2.7650    1.3230 C   0  0  0  0  0
   26.6010    2.4720    1.3670 C   0  0  0  0  0
   27.3730    3.7840    1.5110 C   0  0  0  0  0
   28.8740    3.4910    1.5550 C   0  0  0  0  0
   29.6460    4.8040    1.6990 C   0  0  0  0  0
   -1.1220   -8.3420    0.4600 C   0  0  0  0  0
   -2.2920   -7.5230    0.5180 O   0  0  0  0  0
   -3.7830   -8.1260    0.5720 P   0  0  0  0  0
   -3.9970   -9.0780   -0.6260 O   0  0  0  0  0
   -3.9760   -8.9060    1.8910 O   0  5  0  0  0
   -4.8520   -6.9230    0.4990 O   0  0  0  0  0
   -6.2620   -7.1390    0.4210 C   0  0  0  0  0
   -6.9820   -5.7900    0.3660 C   0  0  0  0  0
   -6.7710   -5.0770    1.6140 O   0  0  0  0  0
   -6.7600   -3.7370    1.5560 C   0  0  0  0  0
   -6.9230   -3.1760    0.4980 O   0  0  0  0  0
   -6.5470   -2.9300    2.8110 C   0  0  0  0  0
   -6.5800   -1.4390    2.4700 C   0  0  0  0  0
   -6.3630   -0.6190    3.7440 C   0  0  0  0  0
   -6.3960    0.8720    3.4030 C   0  0  0  0  0
   -6.1790    1.6910    4.6770 C   0  0  0  0  0
   -6.2120    3.1820    4.3370 C   0  0  0  0  0
   -5.9950    4.0010    5.6100 C   0  0  0  0  0
   -6.0280    5.4920    5.2700 C   0  0  0  0  0
   -5.8110    6.3120    6.5440 C   0  0  0  0  0
   -5.8440    7.8030    6.2030 C   0  0  0  0  0
   -5.6270    8.6220    7.4770 C   0  0  0  0  0
   -5.6600   10.1130    7.1360 C   0  0  0  0  0
   -5.4430   10.9320    8.4100 C   0  0  0  0  0
   -5.4760   12.4240    8.0690 C   0  0  0  0  0
   -5.2590   13.2430    9.3430 C   0  0  0  0  0
   -5.2930   14.7340    9.0030 C   0  0  0  0  0
   -5.0750   15.5530   10.2760 C   0  0  0  0  0
   -8.4800   -6.0190    0.1570 C   0  0  0  0  0
   -9.1460   -4.7400   -0.0130 O   0  0  0  0  0
  -10.4740   -4.7660   -0.2080 C   0  0  0  0  0
  -11.0600   -5.8220   -0.2350 O   0  0  0  0  0
  -11.2340   -3.4780   -0.3920 C   0  0  0  0  0
  -12.7190   -3.7860   -0.5950 C   0  0  0  0  0
  -13.4900   -2.4780   -0.7820 C   0  0  0  0  0
  -14.9750   -2.7860   -0.9840 C   0  0  0  0  0
  -15.7470   -1.4780   -1.1720 C   0  0  0  0  0
  -17.2310   -1.7860   -1.3740 C   0  0  0  0  0
  -18.0030   -0.4780   -1.5610 C   0  0  0  0  0
  -19.4880   -0.7860   -1.7640 C   0  0  0  0  0
  -20.2590    0.5220   -1.9510 C   0  0  0  0  0
  -21.7440    0.2130   -2.1540 C   0  0  0  0  0
  -22.5150    1.5210   -2.3410 C   0  0  0  0  0
  -24.0000    1.2130   -2.5430 C   0  0  0  0  0
  -24.7720    2.5210   -2.7310 C   0  0  0  0  0
  -26.2570    2.2130   -2.9330 C   0  0  0  0  0
  -27.0280    3.5210   -3.1210 C   0  0  0  0  0
  -28.5130    3.2130   -3.3230 C   0  0  0  0  0
  -29.2840    4.5210   -3.5100 C   0  0  0  0  0
    0.0410   -6.7510   -0.4100 H   0  0  0  0  0
    0.3050   -7.2910    2.4300 H   0  0  0  0  0
    1.4960   -8.9640    1.1040 H   0  0  0  0  0
    1.2450   -8.9430   -0.6580 H   0  0  0  0  0
    6.7960   -7.6460    0.6420 H   0  0  0  0  0
    6.7180   -7.5810   -1.1350 H   0  0  0  0  0
    6.8600   -5.1350    0.6820 H   0  0  0  0  0
    7.1840   -2.9800   -3.3040 H   0  0  0  0  0
    5.4640   -3.0360   -2.8470 H   0  0  0  0  0
    5.8040   -1.1020   -1.3330 H   0  0  0  0  0
    7.5230   -1.0460   -1.7900 H   0  0  0  0  0
    6.8820   -0.6490   -4.1520 H   0  0  0  0  0
    5.1630   -0.7050   -3.6950 H   0  0  0  0  0
    5.5030    1.2290   -2.1810 H   0  0  0  0  0
    7.2220    1.2850   -2.6380 H   0  0  0  0  0
    6.5810    1.6820   -5.0000 H   0  0  0  0  0
    4.8620    1.6260   -4.5430 H   0  0  0  0  0
    5.2010    3.5590   -3.0280 H   0  0  0  0  0
    6.9210    3.6150   -3.4850 H   0  0  0  0  0
    6.2800    4.0120   -5.8480 H   0  0  0  0  0
    4.5600    3.9570   -5.3910 H   0  0  0  0  0
    4.9000    5.8900   -3.8760 H   0  0  0  0  0
    6.6190    5.9460   -4.3330 H   0  0  0  0  0
    5.9780    6.3430   -6.6950 H   0  0  0  0  0
    4.2590    6.2870   -6.2380 H   0  0  0  0  0
    4.5990    8.2210   -4.7240 H   0  0  0  0  0
    6.3180    8.2770   -5.1810 H   0  0  0  0  0
    5.6770    8.6740   -7.5430 H   0  0  0  0  0
    3.9580    8.6180   -7.0860 H   0  0  0  0  0
    4.2970   10.5520   -5.5720 H   0  0  0  0  0
    6.0170   10.6080   -6.0290 H   0  0  0  0  0
    5.3760   11.0050   -8.3910 H   0  0  0  0  0
    3.6570   10.9490   -7.9340 H   0  0  0  0  0
    3.9960   12.8830   -6.4200 H   0  0  0  0  0
    5.7150   12.9390   -6.8770 H   0  0  0  0  0
    5.0750   13.3360   -9.2390 H   0  0  0  0  0
    3.3550   13.2800   -8.7820 H   0  0  0  0  0
    3.6950   15.2140   -7.2670 H   0  0  0  0  0
    5.4140   15.2700   -7.7240 H   0  0  0  0  0
    4.7730   15.6670  -10.0870 H   0  0  0  0  0
    3.0540   15.6110   -9.6300 H   0  0  0  0  0
    4.0940   16.9200   -9.0210 H   0  0  0  0  0
    8.9400   -6.5440    0.7090 H   0  0  0  0  0
    9.0210   -6.3980   -1.0630 H   0  0  0  0  0
   11.2400   -2.7050   -0.6560 H   0  0  0  0  0
   11.1600   -2.8510    1.1160 H   0  0  0  0  0
   13.1790   -4.2890    1.0890 H   0  0  0  0  0
   13.2600   -4.1430   -0.6830 H   0  0  0  0  0
   13.5140   -1.6860   -0.4680 H   0  0  0  0  0
   13.4330   -1.8320    1.3040 H   0  0  0  0  0
   15.4530   -3.2700    1.2770 H   0  0  0  0  0
   15.5340   -3.1240   -0.4950 H   0  0  0  0  0
   15.7870   -0.6660   -0.2800 H   0  0  0  0  0
   15.7060   -0.8130    1.4920 H   0  0  0  0  0
   17.7260   -2.2510    1.4650 H   0  0  0  0  0
   17.8070   -2.1040   -0.3070 H   0  0  0  0  0
   18.0600    0.3530   -0.0920 H   0  0  0  0  0
   17.9800    0.2060    1.6800 H   0  0  0  0  0
   20.0000   -1.2320    1.6530 H   0  0  0  0  0
   20.0800   -1.0850   -0.1190 H   0  0  0  0  0
   20.3340    1.3720    0.0960 H   0  0  0  0  0
   20.2530    1.2260    1.8680 H   0  0  0  0  0
   22.2730   -0.2120    1.8410 H   0  0  0  0  0
   22.3540   -0.0660    0.0690 H   0  0  0  0  0
   22.6070    2.3910    0.2840 H   0  0  0  0  0
   22.5260    2.2450    2.0560 H   0  0  0  0  0
   24.5460    0.8070    2.0290 H   0  0  0  0  0
   24.6270    0.9530    0.2570 H   0  0  0  0  0
   24.8810    3.4110    0.4720 H   0  0  0  0  0
   24.8000    3.2640    2.2440 H   0  0  0  0  0
   26.8190    1.8260    2.2170 H   0  0  0  0  0
   26.9000    1.9730    0.4450 H   0  0  0  0  0
   27.1540    4.4300    0.6600 H   0  0  0  0  0
   27.0730    4.2830    2.4320 H   0  0  0  0  0
   29.0930    2.8450    2.4050 H   0  0  0  0  0
   29.1740    2.9920    0.6330 H   0  0  0  0  0
   29.4270    5.4490    0.8480 H   0  0  0  0  0
   29.3460    5.3030    2.6200 H   0  0  0  0  0
   30.7160    4.5950    1.7300 H   0  0  0  0  0
   -1.1560   -8.9600   -0.4380 H   0  0  0  0  0
   -1.0830   -8.9830    1.3400 H   0  0  0  0  0
   -6.4930   -7.7100   -0.4780 H   0  0  0  0  0
   -6.5940   -7.6920    1.2990 H   0  0  0  0  0
   -6.5860   -5.2000   -0.4600 H   0  0  0  0  0
   -7.3360   -3.1560    3.5270 H   0  0  0  0  0
   -5.5790   -3.1820    3.2440 H   0  0  0  0  0
   -5.7900   -1.2120    1.7530 H   0  0  0  0  0
   -7.5470   -1.1860    2.0360 H   0  0  0  0  0
   -7.1520   -0.8460    4.4600 H   0  0  0  0  0
   -5.3950   -0.8720    4.1780 H   0  0  0  0  0
   -5.6060    1.0990    2.6870 H   0  0  0  0  0
   -7.3640    1.1240    2.9700 H   0  0  0  0  0
   -6.9680    1.4640    5.3940 H   0  0  0  0  0
   -5.2110    1.4390    5.1110 H   0  0  0  0  0
   -5.4230    3.4090    3.6200 H   0  0  0  0  0
   -7.1800    3.4340    3.9030 H   0  0  0  0  0
   -6.7840    3.7750    6.3270 H   0  0  0  0  0
   -5.0270    3.7490    6.0440 H   0  0  0  0  0
   -5.2390    5.7190    4.5530 H   0  0  0  0  0
   -6.9960    5.7450    4.8360 H   0  0  0  0  0
   -6.6000    6.0850    7.2600 H   0  0  0  0  0
   -4.8430    6.0600    6.9770 H   0  0  0  0  0
   -5.0550    8.0300    5.4860 H   0  0  0  0  0
   -6.8120    8.0550    5.7690 H   0  0  0  0  0
   -6.4170    8.3950    8.1930 H   0  0  0  0  0
   -4.6590    8.3700    7.9110 H   0  0  0  0  0
   -4.8710   10.3400    6.4200 H   0  0  0  0  0
   -6.6280   10.3650    6.7020 H   0  0  0  0  0
   -6.2330   10.7060    9.1270 H   0  0  0  0  0
   -4.4760   10.6800    8.8440 H   0  0  0  0  0
   -4.6870   12.6500    7.3530 H   0  0  0  0  0
   -6.4440   12.6760    7.6360 H   0  0  0  0  0
   -6.0490   13.0160   10.0600 H   0  0  0  0  0
   -4.2920   12.9910    9.7770 H   0  0  0  0  0
   -4.5030   14.9600    8.2860 H   0  0  0  0  0
   -6.2600   14.9860    8.5690 H   0  0  0  0  0
   -5.0990   16.6150   10.0340 H   0  0  0  0  0
   -5.8650   15.3260   10.9930 H   0  0  0  0  0
   -4.1080   15.3010   10.7100 H   0  0  0  0  0
   -8.6330   -6.6300   -0.7320 H   0  0  0  0  0
   -8.8940   -6.5320    1.0260 H   0  0  0  0  0
  -11.1100   -2.8530    0.4920 H   0  0  0  0  0
  -10.8500   -2.9510   -1.2660 H   0  0  0  0  0
  -12.8430   -4.4110   -1.4790 H   0  0  0  0  0
  -13.1030   -4.3120    0.2790 H   0  0  0  0  0
  -13.3660   -1.8530    0.1030 H   0  0  0  0  0
  -13.1060   -1.9510   -1.6560 H   0  0  0  0  0
  -15.0990   -3.4110   -1.8690 H   0  0  0  0  0
  -15.3590   -3.3130   -0.1110 H   0  0  0  0  0
  -15.6220   -0.8530   -0.2870 H   0  0  0  0  0
  -15.3620   -0.9510   -2.0450 H   0  0  0  0  0
  -17.3550   -2.4110   -2.2590 H   0  0  0  0  0
  -17.6160   -2.3130   -0.5010 H   0  0  0  0  0
  -17.8790    0.1470   -0.6770 H   0  0  0  0  0
  -17.6180    0.0480   -2.4350 H   0  0  0  0  0
  -19.6120   -1.4110   -2.6480 H   0  0  0  0  0
  -19.8720   -1.3130   -0.8900 H   0  0  0  0  0
  -20.1350    1.1460   -1.0670 H   0  0  0  0  0
  -19.8750    1.0480   -2.8250 H   0  0  0  0  0
  -21.8680   -0.4110   -3.0380 H   0  0  0  0  0
  -22.1280   -0.3130   -1.2800 H   0  0  0  0  0
  -22.3910    2.1460   -1.4560 H   0  0  0  0  0
  -22.1310    2.0480   -3.2140 H   0  0  0  0  0
  -24.1240    0.5890   -3.4280 H   0  0  0  0  0
  -24.3840    0.6870   -1.6700 H   0  0  0  0  0
  -24.6470    3.1460   -1.8460 H   0  0  0  0  0
  -24.3870    3.0480   -3.6040 H   0  0  0  0  0
  -26.3810    1.5880   -3.8180 H   0  0  0  0  0
  -26.6410    1.6870   -2.0600 H   0  0  0  0  0
  -26.9040    4.1460   -2.2360 H   0  0  0  0  0
  -26.6440    4.0480   -3.9940 H   0  0  0  0  0
  -28.6370    2.5880   -4.2070 H   0  0  0  0  0
  -28.8970    2.6860   -2.4490 H   0  0  0  0  0
  -29.1600    5.1460   -2.6260 H   0  0  0  0  0
  -28.9000    5.0480   -4.3840 H   0  0  0  0  0
  -30.3420    4.3010   -3.6550 H   0  0  0  0  0
  1  2  1  0  0  0
  1  3  1  0  0  0
  1 52  1  0  0  0
  1101  1  0  0  0
  2102  1  0  0  0
  3  4  1  0  0  0
  3103  1  0  0  0
  3104  1  0  0  0
  4  5  1  0  0  0
  5  6  2  0  0  0
  5  7  1  0  0  0
  5  8  1  0  0  0
  8  9  1  0  0  0
  9 10  1  0  0  0
  9105  1  0  0  0
  9106  1  0  0  0
 10 11  1  0  0  0
 10 31  1  0  0  0
 10107  1  0  0  0
 11 12  1  0  0  0
 12 13  2  0  0  0
 12 14  1  0  0  0
 14 15  1  0  0  0
 14108  1  0  0  0
 14109  1  0  0  0
 15 16  1  0  0  0
 15110  1  0  0  0
 15111  1  0  0  0
 16 17  1  0  0  0
 16112  1  0  0  0
 16113  1  0  0  0
 17 18  1  0  0  0
 17114  1  0  0  0
 17115  1  0  0  0
 18 19  1  0  0  0
 18116  1  0  0  0
 18117  1  0  0  0
 19 20  1  0  0  0
 19118  1  0  0  0
 19119  1  0  0  0
 20 21  1  0  0  0
 20120  1  0  0  0
 20121  1  0  0  0
 21 22  1  0  0  0
 21122  1  0  0  0
 21123  1  0  0  0
 22 23  1  0  0  0
 22124  1  0  0  0
 22125  1  0  0  0
 23 24  1  0  0  0
 23126  1  0  0  0
 23127  1  0  0  0
 24 25  1  0  0  0
 24128  1  0  0  0
 24129  1  0  0  0
 25 26  1  0  0  0
 25130  1  0  0  0
 25131  1  0  0  0
 26 27  1  0  0  0
 26132  1  0  0  0
 26133  1  0  0  0
 27 28  1  0  0  0
 27134  1  0  0  0
 27135  1  0  0  0
 28 29  1  0  0  0
 28136  1  0  0  0
 28137  1  0  0  0
 29 30  1  0  0  0
 29138  1  0  0  0
 29139  1  0  0  0
 30140  1  0  0  0
 30141  1  0  0  0
 30142  1  0  0  0
 31 32  1  0  0  0
 31143  1  0  0  0
 31144  1  0  0  0
 32 33  1  0  0  0
 33 34  2  0  0  0
 33 35  1  0  0  0
 35 36  1  0  0  0
 35145  1  0  0  0
 35146  1  0  0  0
 36 37  1  0  0  0
 36147  1  0  0  0
 36148  1  0  0  0
 37 38  1  0  0  0
 37149  1  0  0  0
 37150  1  0  0  0
 38 39  1  0  0  0
 38151  1  0  0  0
 38152  1  0  0  0
 39 40  1  0  0  0
 39153  1  0  0  0
 39154  1  0  0  0
 40 41  1  0  0  0
 40155  1  0  0  0
 40156  1  0  0  0
 41 42  1  0  0  0
 41157  1  0  0  0
 41158  1  0  0  0
 42 43  1  0  0  0
 42159  1  0  0  0
 42160  1  0  0  0
 43 44  1  0  0  0
 43161  1  0  0  0
 43162  1  0  0  0
 44 45  1  0  0  0
 44163  1  0  0  0
 44164  1  0  0  0
 45 46  1  0  0  0
 45165  1  0  0  0
 45166  1  0  0  0
 46 47  1  0  0  0
 46167  1  0  0  0
 46168  1  0  0  0
 47 48  1  0  0  0
 47169  1  0  0  0
 47170  1  0  0  0
 48 49  1  0  0  0
 48171  1  0  0  0
 48172  1  0  0  0
 49 50  1  0  0  0
 49173  1  0  0  0
 49174  1  0  0  0
 50 51  1  0  0  0
 50175  1  0  0  0
 50176  1  0  0  0
 51177  1  0  0  0
 51178  1  0  0  0
 51179  1  0  0  0
 52 53  1  0  0  0
 52180  1  0  0  0
 52181  1  0  0  0
 53 54  1  0  0  0
 54 55  2  0  0  0
 54 56  1  0  0  0
 54 57  1  0  0  0
 57 58  1  0  0  0
 58 59  1  0  0  0
 58182  1  0  0  0
 58183  1  0  0  0
 59 60  1  0  0  0
 59 80  1  0  0  0
 59184  1  0  0  0
 60 61  1  0  0  0
 61 62  2  0  0  0
 61 63  1  0  0  0
 63 64  1  0  0  0
 63185  1  0  0  0
 63186  1  0  0  0
 64 65  1  0  0  0
 64187  1  0  0  0
 64188  1  0  0  0
 65 66  1  0  0  0
 65189  1  0  0  0
 65190  1  0  0  0
 66 67  1  0  0  0
 66191  1  0  0  0
 66192  1  0  0  0
 67 68  1  0  0  0
 67193  1  0  0  0
 67194  1  0  0  0
 68 69  1  0  0  0
 68195  1  0  0  0
 68196  1  0  0  0
 69 70  1  0  0  0
 69197  1  0  0  0
 69198  1  0  0  0
 70 71  1  0  0  0
 70199  1  0  0  0
 70200  1  0  0  0
 71 72  1  0  0  0
 71201  1  0  0  0
 71202  1  0  0  0
 72 73  1  0  0  0
 72203  1  0  0  0
 72204  1  0  0  0
 73 74  1  0  0  0
 73205  1  0  0  0
 73206  1  0  0  0
 74 75  1  0  0  0
 74207  1  0  0  0
 74208  1  0  0  0
 75 76  1  0  0  0
 75209  1  0  0  0
 75210  1  0  0  0
 76 77  1  0  0  0
 76211  1  0  0  0
 76212  1  0  0  0
 77 78  1  0  0  0
 77213  1  0  0  0
 77214  1  0  0  0
 78 79  1  0  0  0
 78215  1  0  0  0
 78216  1  0  0  0
 79217  1  0  0  0
 79218  1  0  0  0
 79219  1  0  0  0
 80 81  1  0  0  0
 80220  1  0  0  0
 80221  1  0  0  0
 81 82  1  0  0  0
 82 83  2  0  0  0
 82 84  1  0  0  0
 84 85  1  0  0  0
 84222  1  0  0  0
 84223  1  0  0  0
 85 86  1  0  0  0
 85224  1  0  0  0
 85225  1  0  0  0
 86 87  1  0  0  0
 86226  1  0  0  0
 86227  1  0  0  0
 87 88  1  0  0  0
 87228  1  0  0  0
 87229  1  0  0  0
 88 89  1  0  0  0
 88230  1  0  0  0
 88231  1  0  0  0
 89 90  1  0  0  0
 89232  1  0  0  0
 89233  1  0  0  0
 90 91  1  0  0  0
 90234  1  0  0  0
 90235  1  0  0  0
 91 92  1  0  0  0
 91236  1  0  0  0
 91237  1  0  0  0
 92 93  1  0  0  0
 92238  1  0  0  0
 92239  1  0  0  0
 93 94  1  0  0  0
 93240  1  0  0  0
 93241  1  0  0  0
 94 95  1  0  0  0
 94242  1  0  0  0
 94243  1  0  0  0
 95 96  1  0  0  0
 95244  1  0  0  0
 95245  1  0  0  0
 96 97  1  0  0  0
 96246  1  0  0  0
 96247  1  0  0  0
 97 98  1  0  0  0
 97248  1  0  0  0
 97249  1  0  0  0
 98 99  1  0  0  0
 98250  1  0  0  0
 98251  1  0  0  0
 99100  1  0  0  0
 99252  1  0  0  0
 99253  1  0  0  0
100254  1  0  0  0
100255  1  0  0  0
100256  1  0  0  0
M  CHG  1   7  -1
M  CHG  1  56  -1
M  END
$$$$
