CF2
  CCTOOLS-0919241037

 68 73  0  0  1  0  0  0  0  0999 V2000
    9.1300   -3.2560   -0.3900 O   0  0  0  0  0
    8.8230   -2.1630    0.0540 C   0  0  0  0  0
    9.6850   -1.4600    0.8210 N   0  0  0  0  0
    9.3320   -0.2390    1.3130 C   0  0  0  0  0
   10.2280    0.4520    2.0890 N   0  0  0  0  0
    8.1570    0.2960    1.0650 N   0  0  0  0  0
    7.5570   -1.5960   -0.2260 C   0  0  0  0  0
    7.2520   -0.3410    0.3130 C   0  0  0  0  0
    6.4790   -2.0010   -0.9400 N   0  0  0  0  0
    5.5540   -1.0890   -0.8780 C   0  0  0  0  0
    5.9830   -0.0470   -0.1070 N   0  0  0  0  0
    5.2280    1.1700    0.2020 C   0  0  0  0  0
    5.5940    2.2820   -0.8020 C   0  0  0  0  0
    4.2440    2.6550   -1.4620 C   0  0  0  0  0
    4.1320    4.0690   -1.6300 O   0  0  0  0  0
    3.8190    0.9200    0.0680 O   0  0  0  0  0
    3.2190    2.1380   -0.4200 C   0  0  0  0  0
    1.8730    1.8470   -1.0870 C   0  0  0  0  0
    0.9000    1.4790   -0.0740 O   0  0  0  0  0
   -0.3440    1.1890   -0.4980 C   0  0  0  0  0
   -0.6100    1.2410   -1.6830 O   0  0  0  0  0
   -1.2950    0.8400    0.3910 N   0  0  0  0  0
   -2.6490    0.5250   -0.0710 C   0  0  0  0  0
   -3.5260    0.1630    1.1300 C   0  0  0  0  0
   -4.8800   -0.1520    0.6680 N   0  0  0  0  0
   -5.2260   -1.4430    0.3270 C   0  0  0  0  0
   -6.5350   -1.7370   -0.1160 C   0  0  0  0  0
   -6.8640   -3.0640   -0.4580 C   0  0  0  0  0
   -5.9230   -4.0440   -0.3590 C   0  0  0  0  0
   -6.2820   -5.4610   -0.7260 C   0  0  0  0  0
   -4.6350   -3.7530    0.0770 C   0  0  0  0  0
   -3.6130   -4.8560    0.1770 C   0  0  0  0  0
   -4.2850   -2.4650    0.4180 C   0  0  0  0  0
   -7.4620   -0.7750   -0.2140 N   0  0  0  0  0
   -7.1750    0.4630    0.0990 C   0  0  0  0  0
   -8.1720    1.5520    0.0030 C   0  0  0  0  0
   -9.3090    1.3400   -0.3730 O   0  0  0  0  0
   -7.7650    2.7940    0.3520 N   0  0  0  0  0
   -5.8280    0.8220    0.5720 C   0  0  0  0  0
   -5.5800    2.0820    0.8850 N   0  0  0  0  0
   -6.5110    3.0250    0.7660 C   0  0  0  0  0
   -6.2100    4.1670    1.0660 O   0  0  0  0  0
   10.5610   -1.8270    1.0230 H   0  0  0  0  0
   11.0990    0.0700    2.2800 H   0  0  0  0  0
    9.9900    1.3220    2.4460 H   0  0  0  0  0
    4.5880   -1.1510   -1.3560 H   0  0  0  0  0
    5.4540    1.4980    1.2170 H   0  0  0  0  0
    6.0140    3.1420   -0.2820 H   0  0  0  0  0
    6.2930    1.9060   -1.5480 H   0  0  0  0  0
    4.1220    2.1410   -2.4160 H   0  0  0  0  0
    4.8100    4.4520   -2.2040 H   0  0  0  0  0
    3.0990    2.8580    0.3890 H   0  0  0  0  0
    1.5290    2.7360   -1.6160 H   0  0  0  0  0
    1.9890    1.0250   -1.7950 H   0  0  0  0  0
   -1.0830    0.7980    1.3360 H   0  0  0  0  0
   -3.0700    1.3910   -0.5810 H   0  0  0  0  0
   -2.6110   -0.3190   -0.7600 H   0  0  0  0  0
   -3.1050   -0.7030    1.6400 H   0  0  0  0  0
   -3.5640    1.0070    1.8190 H   0  0  0  0  0
   -3.2820   -2.2490    0.7560 H   0  0  0  0  0
   -7.8600   -3.3030   -0.7980 H   0  0  0  0  0
   -6.0810   -5.6240   -1.7850 H   0  0  0  0  0
   -5.6860   -6.1530   -0.1320 H   0  0  0  0  0
   -7.3410   -5.6310   -0.5280 H   0  0  0  0  0
   -3.0790   -4.9420   -0.7690 H   0  0  0  0  0
   -2.9060   -4.6250    0.9730 H   0  0  0  0  0
   -4.1150   -5.7970    0.3980 H   0  0  0  0  0
   -8.3930    3.5320    0.3010 H   0  0  0  0  0
  1  2  2  0  0  0
  2  3  1  0  0  0
  2  7  1  0  0  0
  3  4  1  0  0  0
  3 43  1  0  0  0
  4  5  1  0  0  0
  4  6  2  0  0  0
  5 44  1  0  0  0
  5 45  1  0  0  0
  6  8  1  0  0  0
  7  8  2  0  0  0
  7  9  1  0  0  0
  8 11  1  0  0  0
  9 10  2  0  0  0
 10 11  1  0  0  0
 10 46  1  0  0  0
 11 12  1  0  0  0
 12 13  1  0  0  0
 12 16  1  0  0  0
 12 47  1  0  0  0
 13 14  1  0  0  0
 13 48  1  0  0  0
 13 49  1  0  0  0
 14 15  1  0  0  0
 14 17  1  0  0  0
 14 50  1  0  0  0
 15 51  1  0  0  0
 16 17  1  0  0  0
 17 18  1  0  0  0
 17 52  1  0  0  0
 18 19  1  0  0  0
 18 53  1  0  0  0
 18 54  1  0  0  0
 19 20  1  0  0  0
 20 21  2  0  0  0
 20 22  1  0  0  0
 22 23  1  0  0  0
 22 55  1  0  0  0
 23 24  1  0  0  0
 23 56  1  0  0  0
 23 57  1  0  0  0
 24 25  1  0  0  0
 24 58  1  0  0  0
 24 59  1  0  0  0
 25 26  1  0  0  0
 25 39  1  0  0  0
 26 27  1  0  0  0
 26 33  2  0  0  0
 27 28  2  0  0  0
 27 34  1  0  0  0
 28 29  1  0  0  0
 28 61  1  0  0  0
 29 30  1  0  0  0
 29 31  2  0  0  0
 30 62  1  0  0  0
 30 63  1  0  0  0
 30 64  1  0  0  0
 31 32  1  0  0  0
 31 33  1  0  0  0
 32 65  1  0  0  0
 32 66  1  0  0  0
 32 67  1  0  0  0
 33 60  1  0  0  0
 34 35  2  0  0  0
 35 36  1  0  0  0
 35 39  1  0  0  0
 36 37  2  0  0  0
 36 38  1  0  0  0
 38 41  1  0  0  0
 38 68  1  0  0  0
 39 40  2  0  0  0
 40 41  1  0  0  0
 41 42  2  0  0  0
M  END
$$$$
