CFP
  CCTOOLS-0919241038

 13 14  0  0  0  0  0  0  0  0999 V2000
   -2.1780   -0.0000    1.4580 N   0  0  0  0  0
   -1.3640   -0.0000    2.5520 C   0  0  0  0  0
   -0.1170   -0.0000    2.1800 N   0  0  0  0  0
   -0.0500   -0.0000    0.8250 C   0  0  0  0  0
    0.9900   -0.0000   -0.1060 C   0  0  0  0  0
    2.6460    0.0000    0.4140 CL  0  0  0  0  0
    0.6860   -0.0000   -1.3940 N   0  0  0  0  0
   -0.5710   -0.0010   -1.8040 C   0  0  0  0  0
   -1.5860    0.0040   -0.9630 N   0  0  0  0  0
   -1.3750   -0.0000    0.3460 C   0  0  0  0  0
   -0.8240   -0.0000   -3.1310 F   0  0  0  0  0
   -3.1480   -0.0010    1.4650 H   0  0  0  0  0
   -1.7040   -0.0000    3.5770 H   0  0  0  0  0
  1  2  1  0  0  0
  1 10  1  0  0  0
  1 12  1  0  0  0
  2  3  2  0  0  0
  2 13  1  0  0  0
  3  4  1  0  0  0
  4  5  1  0  0  0
  4 10  2  0  0  0
  5  6  1  0  0  0
  5  7  2  0  0  0
  7  8  1  0  0  0
  8  9  2  0  0  0
  8 11  1  0  0  0
  9 10  1  0  0  0
M  END
$$$$
