CH6
  CCTOOLS-1004241122

 43 44  0  0  1  0  0  0  0  0999 V2000
   -0.8180    1.4680    2.0260 N   0  0  0  0  0
   -5.2640    3.9810   -0.2020 C   0  0  0  0  0
   -4.0180    2.8980   -0.9550 S   0  0  0  0  0
   -3.2520    2.0970    0.4800 C   0  0  0  0  0
   -2.1610    1.1350    0.0050 C   0  0  0  0  0
   -1.5150    0.4590    1.2160 C   0  0  0  0  0
   -0.5270   -0.5770    0.7450 C   0  0  0  0  0
    0.7060   -0.3230    0.4330 N   0  0  0  0  0
    6.1370    2.7160   -0.1590 O   0  0  0  0  0
    3.0710    0.7830    0.0280 C   0  0  0  0  0
    3.9370    1.8450    0.0770 C   0  0  0  0  0
    5.2860    1.6600   -0.2090 C   0  0  0  0  0
    5.7650    0.3980   -0.5440 C   0  0  0  0  0
    4.9090   -0.6720   -0.5960 C   0  0  0  0  0
    3.5490   -0.4930   -0.3050 C   0  0  0  0  0
    2.6300   -1.6320   -0.3590 C   0  0  0  0  0
    1.3220   -1.4810    0.0480 C   0  0  0  0  0
    0.2980   -2.5350    0.1580 C   0  0  0  0  0
    0.4280   -3.7200   -0.0900 O   0  0  0  0  0
   -0.8130   -1.9050    0.5990 N   0  0  0  0  0
   -2.1060   -2.5380    0.8700 C   0  0  0  0  0
   -2.9460   -2.5210   -0.3820 C   0  0  0  0  0
   -2.5090   -2.0310   -1.3960 O   0  0  0  0  0
   -4.1790   -3.0510   -0.3700 O   0  0  0  0  0
   -0.4370    1.0570    2.8650 H   0  0  0  0  0
   -0.0980    1.9280    1.4890 H   0  0  0  0  0
   -5.7960    4.5220   -0.9840 H   0  0  0  0  0
   -5.9710    3.3790    0.3690 H   0  0  0  0  0
   -4.7730    4.6920    0.4620 H   0  0  0  0  0
   -2.8110    2.8550    1.1270 H   0  0  0  0  0
   -4.0090    1.5420    1.0340 H   0  0  0  0  0
   -2.6020    0.3770   -0.6420 H   0  0  0  0  0
   -1.4040    1.6900   -0.5490 H   0  0  0  0  0
   -2.2850   -0.0210    1.8190 H   0  0  0  0  0
    6.5420    2.8540    0.7080 H   0  0  0  0  0
    2.0240    0.9270    0.2500 H   0  0  0  0  0
    3.5700    2.8270    0.3370 H   0  0  0  0  0
    6.8130    0.2610   -0.7650 H   0  0  0  0  0
    5.2820   -1.6510   -0.8580 H   0  0  0  0  0
    2.9770   -2.5900   -0.7170 H   0  0  0  0  0
   -1.9470   -3.5680    1.1870 H   0  0  0  0  0
   -2.6210   -1.9900    1.6600 H   0  0  0  0  0
   -4.6800   -3.0170   -1.1960 H   0  0  0  0  0
  1 25  1  0  0  0
  1 26  1  0  0  0
  2  3  1  0  0  0
  2 27  1  0  0  0
  2 28  1  0  0  0
  2 29  1  0  0  0
  3  4  1  0  0  0
  4  5  1  0  0  0
  4 30  1  0  0  0
  4 31  1  0  0  0
  5  6  1  0  0  0
  5 32  1  0  0  0
  5 33  1  0  0  0
  6  7  1  0  0  0
  6  1  1  0  0  0
  6 34  1  0  0  0
  7 20  1  0  0  0
  8  7  2  0  0  0
  8 17  1  0  0  0
  9 12  1  0  0  0
  9 35  1  0  0  0
 10 36  1  0  0  0
 11 10  2  0  0  0
 11 37  1  0  0  0
 12 11  1  0  0  0
 13 12  2  0  0  0
 13 14  1  0  0  0
 13 38  1  0  0  0
 14 15  2  0  0  0
 14 39  1  0  0  0
 15 10  1  0  0  0
 15 16  1  0  0  0
 16 40  1  0  0  0
 17 16  2  0  0  0
 17 18  1  0  0  0
 18 19  2  0  0  0
 20 18  1  0  0  0
 20 21  1  0  0  0
 21 41  1  0  0  0
 21 42  1  0  0  0
 22 23  2  0  0  0
 22 21  1  0  0  0
 24 22  1  0  0  0
 24 43  1  0  0  0
M  END
$$$$
