CHO
  CCTOOLS-0919241038

 75 78  0  0  1  0  0  0  0  0999 V2000
    5.3820   -2.0360    0.1950 C   0  0  0  0  0
    5.8390   -1.5580   -1.1840 C   0  0  0  0  0
    6.7710   -0.3550   -1.0240 C   0  0  0  0  0
    7.1940    0.0940   -2.3130 O   0  0  0  0  0
    6.0270    0.7750   -0.3100 C   0  0  0  0  0
    5.5700    0.2950    1.0690 C   0  0  0  0  0
    4.8250    1.4270    1.7800 C   0  0  0  0  0
    3.6080    1.8390    0.9480 C   0  0  0  0  0
    4.0400    2.2860   -0.3380 O   0  0  0  0  0
    2.6730    0.6400    0.7850 C   0  0  0  0  0
    3.4250   -0.4920    0.0660 C   0  0  0  0  0
    4.6350   -0.9050    0.9050 C   0  0  0  0  0
    2.5230   -1.6960   -0.1790 C   0  0  0  0  0
    1.2490   -1.2960   -0.9430 C   0  0  0  0  0
    0.5500   -0.2280   -0.1260 C   0  0  0  0  0
    1.4850    1.0110   -0.0830 C   0  0  0  0  0
    0.5520    2.0850    0.4860 C   0  0  0  0  0
   -0.7820    1.8170   -0.2630 C   0  0  0  0  0
   -0.7460    0.3320   -0.7030 C   0  0  0  0  0
    0.3050   -0.7410    1.2940 C   0  0  0  0  0
    4.1700   -1.3840    2.2820 C   0  0  0  0  0
   -1.9490   -0.4200   -0.1320 C   0  0  0  0  0
   -1.9180   -1.8720   -0.6130 C   0  0  0  0  0
   -3.2410    0.2480   -0.6080 C   0  0  0  0  0
   -4.4400   -0.4260    0.0620 C   0  0  0  0  0
   -5.7130    0.2310   -0.4060 C   0  0  0  0  0
   -5.6650    1.1490   -1.1980 O   0  0  0  0  0
   -6.9030   -0.2000    0.0550 N   0  0  0  0  0
   -8.1400    0.4390   -0.4010 C   0  0  0  0  0
   -9.3210   -0.2250    0.2590 C   0  0  0  0  0
   -9.1480   -1.1380    1.0310 O   0  0  0  0  0
  -10.5660    0.1990   -0.0110 O   0  0  0  0  0
    4.7200   -2.8950    0.0810 H   0  0  0  0  0
    6.2520   -2.3250    0.7860 H   0  0  0  0  0
    6.3700   -2.3640   -1.6910 H   0  0  0  0  0
    4.9690   -1.2680   -1.7740 H   0  0  0  0  0
    7.6410   -0.6450   -0.4360 H   0  0  0  0  0
    7.6740   -0.5730   -2.8230 H   0  0  0  0  0
    6.6920    1.6320   -0.1950 H   0  0  0  0  0
    5.1570    1.0670   -0.8990 H   0  0  0  0  0
    6.4390    0.0040    1.6600 H   0  0  0  0  0
    4.4950    1.0840    2.7610 H   0  0  0  0  0
    5.4900    2.2820    1.8990 H   0  0  0  0  0
    3.0790    2.6460    1.4550 H   0  0  0  0  0
    4.6370    3.0450   -0.3110 H   0  0  0  0  0
    2.3400    0.2960    1.7640 H   0  0  0  0  0
    3.7740   -0.1250   -0.8990 H   0  0  0  0  0
    3.0690   -2.4390   -0.7600 H   0  0  0  0  0
    2.2410   -2.1320    0.7800 H   0  0  0  0  0
    1.5140   -0.9000   -1.9230 H   0  0  0  0  0
    0.5970   -2.1620   -1.0570 H   0  0  0  0  0
    1.8170    1.2740   -1.0870 H   0  0  0  0  0
    0.4230    1.9550    1.5610 H   0  0  0  0  0
    0.9280    3.0830    0.2600 H   0  0  0  0  0
   -1.6270    1.9890    0.4040 H   0  0  0  0  0
   -0.8570    2.4650   -1.1370 H   0  0  0  0  0
   -0.7370    0.2610   -1.7910 H   0  0  0  0  0
    1.2550   -1.0220    1.7480 H   0  0  0  0  0
   -0.1640    0.0440    1.8880 H   0  0  0  0  0
   -0.3520   -1.6100    1.2580 H   0  0  0  0  0
    5.0350   -1.6760    2.8760 H   0  0  0  0  0
    3.6370   -0.5770    2.7860 H   0  0  0  0  0
    3.5050   -2.2400    2.1640 H   0  0  0  0  0
   -1.9080   -0.3970    0.9570 H   0  0  0  0  0
   -1.8900   -1.8930   -1.7020 H   0  0  0  0  0
   -1.0320   -2.3680   -0.2160 H   0  0  0  0  0
   -2.8110   -2.3900   -0.2630 H   0  0  0  0  0
   -3.2230    1.3040   -0.3420 H   0  0  0  0  0
   -3.3250    0.1460   -1.6900 H   0  0  0  0  0
   -4.4580   -1.4830   -0.2030 H   0  0  0  0  0
   -4.3560   -0.3250    1.1440 H   0  0  0  0  0
   -6.9410   -0.9340    0.6880 H   0  0  0  0  0
   -8.1220    1.4960   -0.1350 H   0  0  0  0  0
   -8.2240    0.3380   -1.4830 H   0  0  0  0  0
  -11.2920   -0.2580    0.4370 H   0  0  0  0  0
  1  2  1  0  0  0
  1 12  1  0  0  0
  1 33  1  0  0  0
  1 34  1  0  0  0
  2  3  1  0  0  0
  2 35  1  0  0  0
  2 36  1  0  0  0
  3  4  1  0  0  0
  3  5  1  0  0  0
  3 37  1  0  0  0
  4 38  1  0  0  0
  5  6  1  0  0  0
  5 39  1  0  0  0
  5 40  1  0  0  0
  6  7  1  0  0  0
  6 12  1  0  0  0
  6 41  1  0  0  0
  7  8  1  0  0  0
  7 42  1  0  0  0
  7 43  1  0  0  0
  8  9  1  0  0  0
  8 10  1  0  0  0
  8 44  1  0  0  0
  9 45  1  0  0  0
 10 11  1  0  0  0
 10 16  1  0  0  0
 10 46  1  0  0  0
 11 12  1  0  0  0
 11 13  1  0  0  0
 11 47  1  0  0  0
 12 21  1  0  0  0
 13 14  1  0  0  0
 13 48  1  0  0  0
 13 49  1  0  0  0
 14 15  1  0  0  0
 14 50  1  0  0  0
 14 51  1  0  0  0
 15 16  1  0  0  0
 15 19  1  0  0  0
 15 20  1  0  0  0
 16 17  1  0  0  0
 16 52  1  0  0  0
 17 18  1  0  0  0
 17 53  1  0  0  0
 17 54  1  0  0  0
 18 19  1  0  0  0
 18 55  1  0  0  0
 18 56  1  0  0  0
 19 22  1  0  0  0
 19 57  1  0  0  0
 20 58  1  0  0  0
 20 59  1  0  0  0
 20 60  1  0  0  0
 21 61  1  0  0  0
 21 62  1  0  0  0
 21 63  1  0  0  0
 22 23  1  0  0  0
 22 24  1  0  0  0
 22 64  1  0  0  0
 23 65  1  0  0  0
 23 66  1  0  0  0
 23 67  1  0  0  0
 24 25  1  0  0  0
 24 68  1  0  0  0
 24 69  1  0  0  0
 25 26  1  0  0  0
 25 70  1  0  0  0
 25 71  1  0  0  0
 26 27  2  0  0  0
 26 28  1  0  0  0
 28 29  1  0  0  0
 28 72  1  0  0  0
 29 30  1  0  0  0
 29 73  1  0  0  0
 29 74  1  0  0  0
 30 31  2  0  0  0
 30 32  1  0  0  0
 32 75  1  0  0  0
M  END
$$$$
