CHP
  CCTOOLS-1004241122

 21 21  0  0  1  0  0  0  0  0999 V2000
    0.1060    1.9170    2.3230 N   0  0  0  0  0
   -0.5370    0.6110    2.1230 C   0  0  0  0  0
    0.3020   -0.4650    2.7590 C   0  0  0  0  0
    1.5010   -0.3320    2.8310 O   0  0  0  0  0
   -0.2800   -1.5720    3.2460 O   0  0  0  0  0
   -0.6720    0.3380    0.6470 C   0  0  0  0  0
    0.4550    0.2850   -0.1490 C   0  0  0  0  0
    0.3350    0.0290   -1.5030 C   0  0  0  0  0
    1.7520   -0.0430   -2.5030 CL  0  0  0  0  0
   -0.9200   -0.1640   -2.0610 C   0  0  0  0  0
   -1.0420   -0.4110   -3.3930 O   0  0  0  0  0
   -2.0500   -0.1050   -1.2590 C   0  0  0  0  0
   -1.9240    0.1450    0.0920 C   0  0  0  0  0
    1.0130    1.8630    1.8830 H   0  0  0  0  0
   -0.4310    2.5890    1.7960 H   0  0  0  0  0
   -1.5260    0.6200    2.5830 H   0  0  0  0  0
    0.2590   -2.2630    3.6540 H   0  0  0  0  0
    1.4320    0.4360    0.2850 H   0  0  0  0  0
   -1.1350    0.4460   -3.8290 H   0  0  0  0  0
   -3.0280   -0.2560   -1.6920 H   0  0  0  0  0
   -2.8030    0.1910    0.7170 H   0  0  0  0  0
  1  2  1  0  0  0
  1 14  1  0  0  0
  1 15  1  0  0  0
  2  3  1  0  0  0
  2  6  1  0  0  0
  2 16  1  0  0  0
  3  4  2  0  0  0
  3  5  1  0  0  0
  5 17  1  0  0  0
  6  7  2  0  0  0
  6 13  1  0  0  0
  7  8  1  0  0  0
  7 18  1  0  0  0
  8  9  1  0  0  0
  8 10  2  0  0  0
 10 11  1  0  0  0
 10 12  1  0  0  0
 11 19  1  0  0  0
 12 13  2  0  0  0
 12 20  1  0  0  0
 13 21  1  0  0  0
M  END
$$$$
