CI2
  CCTOOLS-0919241038

 55 58  0  0  1  0  0  0  0  0999 V2000
    4.9270    1.9840   -0.3190 C   0  0  0  0  0
    4.4570    0.5620   -0.1540 C   0  0  0  0  0
    5.0170   -0.1720    0.6240 O   0  0  0  0  0
    3.2900    0.0550   -0.9620 C   0  0  0  0  0
    3.3880   -1.4800   -1.1430 C   0  0  0  0  0
    2.0780   -2.0740   -0.5570 C   0  0  0  0  0
    1.0950   -0.9020   -0.6550 C   0  0  0  0  0
   -0.0990   -0.9600    0.2790 C   0  0  0  0  0
   -0.9710   -2.1730   -0.0420 C   0  0  0  0  0
   -2.1930   -2.1830    0.8790 C   0  0  0  0  0
   -3.0040   -0.9030    0.6590 C   0  0  0  0  0
   -3.4380   -0.8360   -0.8100 C   0  0  0  0  0
   -4.0980    0.5020   -1.0590 C   0  0  0  0  0
   -5.1870    0.5690   -1.5770 O   0  0  0  0  0
   -3.3580    1.7540   -0.6430 C   0  0  0  0  0
   -2.9290    1.5990    0.8200 C   0  0  0  0  0
   -2.1330    0.3080    1.0000 C   0  0  0  0  0
   -1.6470    0.2120    2.4480 C   0  0  0  0  0
   -0.9040    0.3330    0.0720 C   0  0  0  0  0
   -0.0660    1.5780    0.3460 C   0  0  0  0  0
    1.2230    1.5820   -0.4940 C   0  0  0  0  0
    1.9850    0.2930   -0.2100 C   0  0  0  0  0
    2.2200    0.1530    1.2960 C   0  0  0  0  0
    5.7740    2.1660    0.3420 H   0  0  0  0  0
    5.2300    2.1500   -1.3530 H   0  0  0  0  0
    4.1150    2.6660   -0.0650 H   0  0  0  0  0
    3.2610    0.5490   -1.9330 H   0  0  0  0  0
    3.4710   -1.7280   -2.2010 H   0  0  0  0  0
    4.2500   -1.8660   -0.5990 H   0  0  0  0  0
    1.7340   -2.9160   -1.1580 H   0  0  0  0  0
    2.2200   -2.3730    0.4810 H   0  0  0  0  0
    0.7650   -0.7670   -1.6850 H   0  0  0  0  0
    0.2450   -1.0170    1.3120 H   0  0  0  0  0
   -1.2990   -2.1200   -1.0800 H   0  0  0  0  0
   -0.3940   -3.0860    0.1100 H   0  0  0  0  0
   -2.8130   -3.0500    0.6520 H   0  0  0  0  0
   -1.8650   -2.2320    1.9170 H   0  0  0  0  0
   -3.8850   -0.9120    1.3010 H   0  0  0  0  0
   -2.5650   -0.9380   -1.4550 H   0  0  0  0  0
   -4.1460   -1.6370   -1.0200 H   0  0  0  0  0
   -2.4770    1.8850   -1.2710 H   0  0  0  0  0
   -4.0140    2.6180   -0.7420 H   0  0  0  0  0
   -2.3120    2.4490    1.1090 H   0  0  0  0  0
   -3.8140    1.5610    1.4550 H   0  0  0  0  0
   -2.5060    0.2080    3.1190 H   0  0  0  0  0
   -1.0790   -0.7090    2.5800 H   0  0  0  0  0
   -1.0120    1.0680    2.6750 H   0  0  0  0  0
   -1.2430    0.3570   -0.9640 H   0  0  0  0  0
   -0.6530    2.4630    0.1030 H   0  0  0  0  0
    0.1980    1.6040    1.4030 H   0  0  0  0  0
    0.9730    1.6010   -1.5550 H   0  0  0  0  0
    1.8280    2.4520   -0.2390 H   0  0  0  0  0
    1.2690    0.2350    1.8210 H   0  0  0  0  0
    2.6680   -0.8190    1.5050 H   0  0  0  0  0
    2.8920    0.9420    1.6330 H   0  0  0  0  0
  1  2  1  0  0  0
  1 24  1  0  0  0
  1 25  1  0  0  0
  1 26  1  0  0  0
  2  3  2  0  0  0
  2  4  1  0  0  0
  4  5  1  0  0  0
  4 22  1  0  0  0
  4 27  1  0  0  0
  5  6  1  0  0  0
  5 28  1  0  0  0
  5 29  1  0  0  0
  6  7  1  0  0  0
  6 30  1  0  0  0
  6 31  1  0  0  0
  7  8  1  0  0  0
  7 22  1  0  0  0
  7 32  1  0  0  0
  8  9  1  0  0  0
  8 19  1  0  0  0
  8 33  1  0  0  0
  9 10  1  0  0  0
  9 34  1  0  0  0
  9 35  1  0  0  0
 10 11  1  0  0  0
 10 36  1  0  0  0
 10 37  1  0  0  0
 11 12  1  0  0  0
 11 17  1  0  0  0
 11 38  1  0  0  0
 12 13  1  0  0  0
 12 39  1  0  0  0
 12 40  1  0  0  0
 13 14  2  0  0  0
 13 15  1  0  0  0
 15 16  1  0  0  0
 15 41  1  0  0  0
 15 42  1  0  0  0
 16 17  1  0  0  0
 16 43  1  0  0  0
 16 44  1  0  0  0
 17 18  1  0  0  0
 17 19  1  0  0  0
 18 45  1  0  0  0
 18 46  1  0  0  0
 18 47  1  0  0  0
 19 20  1  0  0  0
 19 48  1  0  0  0
 20 21  1  0  0  0
 20 49  1  0  0  0
 20 50  1  0  0  0
 21 22  1  0  0  0
 21 51  1  0  0  0
 21 52  1  0  0  0
 22 23  1  0  0  0
 23 53  1  0  0  0
 23 54  1  0  0  0
 23 55  1  0  0  0
M  END
$$$$
