CIS
  CCTOOLS-0919241038

152152  0  0  1  0  0  0  0  0999 V2000
    4.3340   18.0120    0.9470 C   0  0  0  0  0
    4.8120   16.6620    1.4870 C   0  0  0  0  0
    4.6290   15.5890    0.4110 C   0  0  0  0  0
    5.1070   14.2400    0.9510 C   0  0  0  0  0
    4.9240   13.1670   -0.1250 C   0  0  0  0  0
    5.4020   11.8170    0.4150 C   0  0  0  0  0
    5.2190   10.7450   -0.6610 C   0  0  0  0  0
    5.6970    9.3950   -0.1220 C   0  0  0  0  0
    5.5140    8.3220   -1.1970 C   0  0  0  0  0
    5.9920    6.9730   -0.6580 C   0  0  0  0  0
    5.8090    5.9000   -1.7330 C   0  0  0  0  0
    6.2870    4.5500   -1.1940 C   0  0  0  0  0
    6.1040    3.4770   -2.2690 C   0  0  0  0  0
    6.5750    2.1480   -1.7380 C   0  0  0  0  0
    5.7700    1.1140   -1.7530 C   0  0  0  0  0
    6.2410   -0.2150   -1.2220 C   0  0  0  0  0
    7.5450   -0.0670   -0.6560 O   0  0  0  0  0
    5.2710   -0.7070   -0.1460 C   0  0  0  0  0
    5.8010   -2.0060    0.4640 C   0  0  0  0  0
    6.0210   -2.9640   -0.5730 O   0  0  0  0  0
    6.5130   -4.1490    0.0570 C   0  0  0  0  0
    6.6480   -5.2610   -0.9850 C   0  0  0  0  0
    5.3760   -5.5070   -1.5890 O   0  0  0  0  0
    7.7860   -3.8800    0.6430 O   0  0  0  0  0
    8.1580   -5.0240    1.4100 C   0  0  0  0  0
    9.4240   -4.7100    2.2090 C   0  0  0  0  0
    9.1420   -3.6870    3.1660 O   0  0  0  0  0
    8.4260   -6.2080    0.4780 C   0  0  0  0  0
    9.4650   -5.8670   -0.4410 O   0  0  0  0  0
    7.1430   -6.5360   -0.2940 C   0  0  0  0  0
    7.4160   -7.5410   -1.2730 O   0  0  0  0  0
    6.9900   -8.8710   -0.6680 S   0  0  0  0  0
    5.4690   -8.8920   -0.6390 O   0  0  0  0  0
    7.3710   -9.8640   -1.6110 O   0  0  0  0  0
    7.4020   -8.8270    0.6910 O   0  0  0  0  0
    3.9570   -0.9510   -0.7480 N   0  0  0  0  0
    2.8470   -0.8950    0.0140 C   0  0  0  0  0
    2.9340   -0.6440    1.1970 O   0  0  0  0  0
    1.4960   -1.1460   -0.6050 C   0  0  0  0  0
    0.4120   -1.0240    0.4680 C   0  0  0  0  0
   -0.9590   -1.2790   -0.1600 C   0  0  0  0  0
   -2.0430   -1.1570    0.9130 C   0  0  0  0  0
   -3.4140   -1.4120    0.2850 C   0  0  0  0  0
   -4.4980   -1.2900    1.3580 C   0  0  0  0  0
   -5.8690   -1.5440    0.7300 C   0  0  0  0  0
   -6.9530   -1.4220    1.8030 C   0  0  0  0  0
   -8.3240   -1.6770    1.1750 C   0  0  0  0  0
   -9.4070   -1.5550    2.2490 C   0  0  0  0  0
  -10.7790   -1.8100    1.6200 C   0  0  0  0  0
  -11.8620   -1.6870    2.6940 C   0  0  0  0  0
  -13.2340   -1.9420    2.0650 C   0  0  0  0  0
  -14.3010   -1.8220    3.1230 C   0  0  0  0  0
  -15.3230   -1.0240    2.9340 C   0  0  0  0  0
  -15.5180   -0.3520    1.6000 C   0  0  0  0  0
  -16.9320   -0.6330    1.0890 C   0  0  0  0  0
  -17.1300    0.0490   -0.2660 C   0  0  0  0  0
  -18.5440   -0.2330   -0.7770 C   0  0  0  0  0
  -18.7430    0.4490   -2.1320 C   0  0  0  0  0
  -20.1570    0.1680   -2.6430 C   0  0  0  0  0
  -20.3550    0.8500   -3.9980 C   0  0  0  0  0
  -21.7690    0.5680   -4.5090 C   0  0  0  0  0
    3.2800   17.9430    0.6780 H   0  0  0  0  0
    4.4640   18.7760    1.7130 H   0  0  0  0  0
    4.9170   18.2780    0.0660 H   0  0  0  0  0
    5.8660   16.7310    1.7550 H   0  0  0  0  0
    4.2290   16.3960    2.3680 H   0  0  0  0  0
    3.5750   15.5210    0.1420 H   0  0  0  0  0
    5.2120   15.8560   -0.4700 H   0  0  0  0  0
    6.1610   14.3090    1.2190 H   0  0  0  0  0
    4.5240   13.9740    1.8320 H   0  0  0  0  0
    3.8700   13.0980   -0.3940 H   0  0  0  0  0
    5.5070   13.4330   -1.0070 H   0  0  0  0  0
    6.4560   11.8860    0.6830 H   0  0  0  0  0
    4.8190   11.5510    1.2960 H   0  0  0  0  0
    4.1650   10.6760   -0.9300 H   0  0  0  0  0
    5.8020   11.0110   -1.5430 H   0  0  0  0  0
    6.7510    9.4640    0.1470 H   0  0  0  0  0
    5.1140    9.1290    0.7600 H   0  0  0  0  0
    4.4600    8.2530   -1.4660 H   0  0  0  0  0
    6.0970    8.5880   -2.0790 H   0  0  0  0  0
    7.0460    7.0420   -0.3890 H   0  0  0  0  0
    5.4090    6.7070    0.2240 H   0  0  0  0  0
    4.7550    5.8310   -2.0020 H   0  0  0  0  0
    6.3920    6.1660   -2.6150 H   0  0  0  0  0
    7.3410    4.6190   -0.9250 H   0  0  0  0  0
    5.7040    4.2840   -0.3120 H   0  0  0  0  0
    5.0500    3.4090   -2.5380 H   0  0  0  0  0
    6.6870    3.7440   -3.1510 H   0  0  0  0  0
    7.5760    2.0480   -1.3440 H   0  0  0  0  0
    4.7690    1.2150   -2.1460 H   0  0  0  0  0
    6.2790   -0.9390   -2.0360 H   0  0  0  0  0
    7.4810    0.6280    0.0140 H   0  0  0  0  0
    5.1780    0.0500    0.6330 H   0  0  0  0  0
    6.7410   -1.8070    0.9800 H   0  0  0  0  0
    5.0730   -2.3980    1.1740 H   0  0  0  0  0
    5.8160   -4.4630    0.8340 H   0  0  0  0  0
    7.3630   -4.9600   -1.7510 H   0  0  0  0  0
    5.1030   -4.6810   -2.0120 H   0  0  0  0  0
    7.3500   -5.2780    2.0960 H   0  0  0  0  0
    9.7590   -5.6090    2.7260 H   0  0  0  0  0
   10.2060   -4.3680    1.5310 H   0  0  0  0  0
    9.9640   -3.5200    3.6470 H   0  0  0  0  0
    8.7290   -7.0740    1.0670 H   0  0  0  0  0
   10.2490   -5.6620    0.0870 H   0  0  0  0  0
    6.3820   -6.8970    0.3980 H   0  0  0  0  0
    5.2080   -9.7390   -0.2540 H   0  0  0  0  0
    3.8870   -1.1520   -1.6940 H   0  0  0  0  0
    1.3140   -0.4130   -1.3900 H   0  0  0  0  0
    1.4720   -2.1490   -1.0320 H   0  0  0  0  0
    0.5940   -1.7580    1.2530 H   0  0  0  0  0
    0.4360   -0.0220    0.8960 H   0  0  0  0  0
   -1.1410   -0.5450   -0.9450 H   0  0  0  0  0
   -0.9830   -2.2820   -0.5870 H   0  0  0  0  0
   -1.8610   -1.8910    1.6980 H   0  0  0  0  0
   -2.0190   -0.1540    1.3410 H   0  0  0  0  0
   -3.5960   -0.6780   -0.5000 H   0  0  0  0  0
   -3.4370   -2.4140   -0.1420 H   0  0  0  0  0
   -4.3160   -2.0230    2.1430 H   0  0  0  0  0
   -4.4740   -0.2870    1.7860 H   0  0  0  0  0
   -6.0510   -0.8100   -0.0550 H   0  0  0  0  0
   -5.8920   -2.5470    0.3030 H   0  0  0  0  0
   -6.7710   -2.1560    2.5890 H   0  0  0  0  0
   -6.9290   -0.4200    2.2310 H   0  0  0  0  0
   -8.5060   -0.9430    0.3900 H   0  0  0  0  0
   -8.3470   -2.6790    0.7480 H   0  0  0  0  0
   -9.2250   -2.2890    3.0340 H   0  0  0  0  0
   -9.3840   -0.5520    2.6760 H   0  0  0  0  0
  -10.9610   -1.0760    0.8350 H   0  0  0  0  0
  -10.8020   -2.8120    1.1930 H   0  0  0  0  0
  -11.6800   -2.4210    3.4790 H   0  0  0  0  0
  -11.8390   -0.6850    3.1210 H   0  0  0  0  0
  -13.4160   -1.2080    1.2800 H   0  0  0  0  0
  -13.2570   -2.9450    1.6380 H   0  0  0  0  0
  -14.2240   -2.3940    4.0360 H   0  0  0  0  0
  -16.0250   -0.8470    3.7360 H   0  0  0  0  0
  -15.3790    0.7240    1.7110 H   0  0  0  0  0
  -14.7900   -0.7400    0.8870 H   0  0  0  0  0
  -17.0710   -1.7090    0.9780 H   0  0  0  0  0
  -17.6600   -0.2450    1.8010 H   0  0  0  0  0
  -16.9920    1.1240   -0.1550 H   0  0  0  0  0
  -16.4020   -0.3390   -0.9790 H   0  0  0  0  0
  -18.6830   -1.3080   -0.8880 H   0  0  0  0  0
  -19.2720    0.1560   -0.0650 H   0  0  0  0  0
  -18.6040    1.5250   -2.0210 H   0  0  0  0  0
  -18.0150    0.0610   -2.8450 H   0  0  0  0  0
  -20.2950   -0.9080   -2.7540 H   0  0  0  0  0
  -20.8850    0.5560   -1.9310 H   0  0  0  0  0
  -20.2160    1.9250   -3.8870 H   0  0  0  0  0
  -19.6270    0.4620   -4.7110 H   0  0  0  0  0
  -21.9080   -0.5070   -4.6200 H   0  0  0  0  0
  -22.4970    0.9570   -3.7970 H   0  0  0  0  0
  -21.9100    1.0540   -5.4750 H   0  0  0  0  0
  1  2  1  0  0  0
  1 62  1  0  0  0
  1 63  1  0  0  0
  1 64  1  0  0  0
  2  3  1  0  0  0
  2 65  1  0  0  0
  2 66  1  0  0  0
  3  4  1  0  0  0
  3 67  1  0  0  0
  3 68  1  0  0  0
  4  5  1  0  0  0
  4 69  1  0  0  0
  4 70  1  0  0  0
  5  6  1  0  0  0
  5 71  1  0  0  0
  5 72  1  0  0  0
  6  7  1  0  0  0
  6 73  1  0  0  0
  6 74  1  0  0  0
  7  8  1  0  0  0
  7 75  1  0  0  0
  7 76  1  0  0  0
  8  9  1  0  0  0
  8 77  1  0  0  0
  8 78  1  0  0  0
  9 10  1  0  0  0
  9 79  1  0  0  0
  9 80  1  0  0  0
 10 11  1  0  0  0
 10 81  1  0  0  0
 10 82  1  0  0  0
 11 12  1  0  0  0
 11 83  1  0  0  0
 11 84  1  0  0  0
 12 13  1  0  0  0
 12 85  1  0  0  0
 12 86  1  0  0  0
 13 14  1  0  0  0
 13 87  1  0  0  0
 13 88  1  0  0  0
 14 15  2  0  0  0
 14 89  1  0  0  0
 15 16  1  0  0  0
 15 90  1  0  0  0
 16 17  1  0  0  0
 16 18  1  0  0  0
 16 91  1  0  0  0
 17 92  1  0  0  0
 18 19  1  0  0  0
 18 36  1  0  0  0
 18 93  1  0  0  0
 19 20  1  0  0  0
 19 94  1  0  0  0
 19 95  1  0  0  0
 20 21  1  0  0  0
 21 22  1  0  0  0
 21 24  1  0  0  0
 21 96  1  0  0  0
 22 23  1  0  0  0
 22 30  1  0  0  0
 22 97  1  0  0  0
 23 98  1  0  0  0
 24 25  1  0  0  0
 25 26  1  0  0  0
 25 28  1  0  0  0
 25 99  1  0  0  0
 26 27  1  0  0  0
 26100  1  0  0  0
 26101  1  0  0  0
 27102  1  0  0  0
 28 29  1  0  0  0
 28 30  1  0  0  0
 28103  1  0  0  0
 29104  1  0  0  0
 30 31  1  0  0  0
 30105  1  0  0  0
 31 32  1  0  0  0
 32 33  1  0  0  0
 32 34  2  0  0  0
 32 35  2  0  0  0
 33106  1  0  0  0
 36 37  1  0  0  0
 36107  1  0  0  0
 37 38  2  0  0  0
 37 39  1  0  0  0
 39 40  1  0  0  0
 39108  1  0  0  0
 39109  1  0  0  0
 40 41  1  0  0  0
 40110  1  0  0  0
 40111  1  0  0  0
 41 42  1  0  0  0
 41112  1  0  0  0
 41113  1  0  0  0
 42 43  1  0  0  0
 42114  1  0  0  0
 42115  1  0  0  0
 43 44  1  0  0  0
 43116  1  0  0  0
 43117  1  0  0  0
 44 45  1  0  0  0
 44118  1  0  0  0
 44119  1  0  0  0
 45 46  1  0  0  0
 45120  1  0  0  0
 45121  1  0  0  0
 46 47  1  0  0  0
 46122  1  0  0  0
 46123  1  0  0  0
 47 48  1  0  0  0
 47124  1  0  0  0
 47125  1  0  0  0
 48 49  1  0  0  0
 48126  1  0  0  0
 48127  1  0  0  0
 49 50  1  0  0  0
 49128  1  0  0  0
 49129  1  0  0  0
 50 51  1  0  0  0
 50130  1  0  0  0
 50131  1  0  0  0
 51 52  1  0  0  0
 51132  1  0  0  0
 51133  1  0  0  0
 52 53  2  0  0  0
 52134  1  0  0  0
 53 54  1  0  0  0
 53135  1  0  0  0
 54 55  1  0  0  0
 54136  1  0  0  0
 54137  1  0  0  0
 55 56  1  0  0  0
 55138  1  0  0  0
 55139  1  0  0  0
 56 57  1  0  0  0
 56140  1  0  0  0
 56141  1  0  0  0
 57 58  1  0  0  0
 57142  1  0  0  0
 57143  1  0  0  0
 58 59  1  0  0  0
 58144  1  0  0  0
 58145  1  0  0  0
 59 60  1  0  0  0
 59146  1  0  0  0
 59147  1  0  0  0
 60 61  1  0  0  0
 60148  1  0  0  0
 60149  1  0  0  0
 61150  1  0  0  0
 61151  1  0  0  0
 61152  1  0  0  0
M  END
$$$$
