CJZ
  CCTOOLS-0919241038

 28 29  0  0  0  0  0  0  0  0999 V2000
   -2.7080   -0.5200    2.7480 O   0  0  0  0  0
   -1.1950    0.9180    1.9920 O   0  0  0  0  0
    3.7800   -1.2240   -0.0660 O   0  0  0  0  0
    4.1330    1.7060    0.0380 CL  0  0  0  0  0
    1.3920   -2.9460   -0.3050 CL  0  0  0  0  0
   -3.9260    0.2390   -2.1030 C   0  0  0  0  0
   -4.5460   -0.4320   -1.0610 C   0  0  0  0  0
   -2.7380    0.9100   -1.8930 C   0  0  0  0  0
   -3.9840   -0.4370    0.1970 C   0  0  0  0  0
    1.4410    1.5620   -0.2020 C   0  0  0  0  0
    0.2250   -0.5060   -0.3710 C   0  0  0  0  0
   -0.9640    1.5960   -0.4170 N   0  0  0  0  0
   -2.1750    0.2370    1.7680 C   0  0  0  0  0
    0.2370    0.8820   -0.3300 C   0  0  0  0  0
    2.6270    0.8570   -0.1150 C   0  0  0  0  0
    1.4100   -1.2100   -0.2740 C   0  0  0  0  0
    2.6130   -0.5300   -0.1510 C   0  0  0  0  0
   -2.1580    0.9220   -0.6310 C   0  0  0  0  0
   -2.7820    0.2380    0.4260 C   0  0  0  0  0
   -2.2750   -0.4880    3.6120 H   0  0  0  0  0
    4.0400   -1.4470    0.8390 H   0  0  0  0  0
   -4.3720    0.2330   -3.0860 H   0  0  0  0  0
   -5.4760   -0.9530   -1.2360 H   0  0  0  0  0
   -2.2590    1.4260   -2.7120 H   0  0  0  0  0
   -4.4730   -0.9610    1.0050 H   0  0  0  0  0
    1.4520    2.6420   -0.1740 H   0  0  0  0  0
   -0.7120   -1.0350   -0.4670 H   0  0  0  0  0
   -0.9610    2.5620   -0.3290 H   0  0  0  0  0
  1 20  1  0  0  0
  2 13  2  0  0  0
  3 21  1  0  0  0
  6  8  1  0  0  0
  6 22  1  0  0  0
  7  6  2  0  0  0
  7 23  1  0  0  0
  8 24  1  0  0  0
  9  7  1  0  0  0
  9 19  2  0  0  0
  9 25  1  0  0  0
 10 15  1  0  0  0
 10 26  1  0  0  0
 11 16  2  0  0  0
 11 27  1  0  0  0
 12 14  1  0  0  0
 12 28  1  0  0  0
 13  1  1  0  0  0
 13 19  1  0  0  0
 14 10  2  0  0  0
 14 11  1  0  0  0
 15  4  1  0  0  0
 15 17  2  0  0  0
 16  5  1  0  0  0
 16 17  1  0  0  0
 17  3  1  0  0  0
 18  8  2  0  0  0
 18 12  1  0  0  0
 19 18  1  0  0  0
M  END
$$$$
