CLA
  CCTOOLS-0919241038

137145  0  0  1  0  0  0  0  0999 V2000
    6.5510   -0.4440   -0.0200 MG  0  0  0  0  0
    4.5420    2.0430   -0.3790 C   0  0  0  0  0
    5.5990   -0.7510    2.9540 C   0  0  0  0  0
    8.6330   -2.8190    0.3240 C   0  0  0  0  0
    7.6540   -0.0750   -3.0040 C   0  0  0  0  0
    4.8490   -0.0790    0.7450 N   0  0  0  0  0
    4.0930    0.9810    0.4100 C   0  0  0  0  0
    2.7960    0.8430    1.1700 C   0  0  0  0  0
    3.1280   -0.2820    2.1960 C   0  0  0  0  0
    4.6270   -0.4110    2.0270 C   0  0  0  0  0
    2.7710    0.1510    3.6190 C   0  0  0  0  0
    1.6630    0.4110    0.2380 C   0  0  0  0  0
    0.3420    0.4010    1.0110 C   0  0  0  0  0
   -0.7740   -0.0240    0.0930 C   0  0  0  0  0
   -0.5380   -0.2920   -1.0620 O   0  0  0  0  0
   -2.0310   -0.1050    0.5570 O   0  0  0  0  0
    7.5050   -1.0390    1.5060 N   0  0  0  0  0
    6.9660   -1.0040    2.7790 C   0  0  0  0  0
    8.0620   -1.3280    3.5610 C   0  0  0  0  0
    9.0390   -1.9260    2.7340 C   0  0  0  0  0
    8.4920   -2.0080    1.4390 C   0  0  0  0  0
    8.1910   -1.0830    5.0420 C   0  0  0  0  0
   10.3780   -2.3780    3.1490 C   0  0  0  0  0
   11.1700   -1.5640    3.8400 C   0  0  0  0  0
    7.1730   -1.7280   -1.2710 N   0  0  0  0  0
    7.9450   -2.7630   -0.9130 C   0  0  0  0  0
    7.9640   -3.5360   -2.0920 C   0  0  0  0  0
    7.6690   -2.6710   -3.1280 C   0  0  0  0  0
    7.4730   -1.4000   -2.5410 C   0  0  0  0  0
    8.2490   -5.0120   -2.2010 C   0  0  0  0  0
    7.5760   -3.0140   -4.5930 C   0  0  0  0  0
    6.1180   -3.2980   -4.9580 C   0  0  0  0  0
    6.7600    1.0870   -1.1210 N   0  0  0  0  0
    7.2900    1.1230   -2.3880 C   0  0  0  0  0
    7.0880    2.4530   -2.7570 C   0  0  0  0  0
    6.0610    3.0100   -1.9740 C   0  0  0  0  0
    5.7920    2.0300   -1.0320 C   0  0  0  0  0
    7.8530    3.1810   -3.8310 C   0  0  0  0  0
    5.0560    4.0330   -1.6760 C   0  0  0  0  0
    5.0500    5.1760   -2.0850 O   0  0  0  0  0
    4.0150    3.3940   -0.7530 C   0  0  0  0  0
    3.8360    4.2380    0.4830 C   0  0  0  0  0
    4.1090    3.7840    1.5690 O   0  0  0  0  0
    3.3710    5.4930    0.3780 O   0  0  0  0  0
    3.2230    6.2470    1.6100 C   0  0  0  0  0
   -3.0560   -0.5220   -0.3840 C   0  0  0  0  0
   -4.3920   -0.5550    0.3120 C   0  0  0  0  0
   -5.2010   -1.5690    0.1290 C   0  0  0  0  0
   -4.8530   -2.6390   -0.8730 C   0  0  0  0  0
   -6.4800   -1.6650    0.9200 C   0  0  0  0  0
   -7.6300   -1.0710    0.1050 C   0  0  0  0  0
   -8.9290   -1.1690    0.9090 C   0  0  0  0  0
  -10.0790   -0.5750    0.0940 C   0  0  0  0  0
   -9.8400    0.9230   -0.1080 C   0  0  0  0  0
  -11.3960   -0.7850    0.8440 C   0  0  0  0  0
  -12.5600   -0.3030   -0.0260 C   0  0  0  0  0
  -13.8770   -0.5130    0.7240 C   0  0  0  0  0
  -15.0410   -0.0320   -0.1460 C   0  0  0  0  0
  -14.9300    1.4800   -0.3540 C   0  0  0  0  0
  -16.3650   -0.3550    0.5500 C   0  0  0  0  0
  -17.5280    0.0120   -0.3730 C   0  0  0  0  0
  -18.8520   -0.3110    0.3220 C   0  0  0  0  0
  -20.0160    0.0570   -0.6010 C   0  0  0  0  0
  -19.9830   -0.8360   -1.8430 C   0  0  0  0  0
  -21.3390   -0.1490    0.1400 C   0  0  0  0  0
    5.2480   -0.8330    3.9710 H   0  0  0  0  0
    9.3720   -3.6020    0.4090 H   0  0  0  0  0
    8.1400    0.0220   -3.9640 H   0  0  0  0  0
    2.5460    1.7720    1.6820 H   0  0  0  0  0
    2.6240   -1.2120    1.9340 H   0  0  0  0  0
    1.7050    0.3710    3.6760 H   0  0  0  0  0
    3.0130   -0.6530    4.3150 H   0  0  0  0  0
    3.3410    1.0420    3.8820 H   0  0  0  0  0
    1.5910    1.1100   -0.5950 H   0  0  0  0  0
    1.8670   -0.5890   -0.1440 H   0  0  0  0  0
    0.4140   -0.2980    1.8440 H   0  0  0  0  0
    0.1380    1.4010    1.3930 H   0  0  0  0  0
    7.8140   -1.9490    5.5870 H   0  0  0  0  0
    9.2390   -0.9230    5.2940 H   0  0  0  0  0
    7.6120   -0.2010    5.3160 H   0  0  0  0  0
   10.7170   -3.3710    2.8920 H   0  0  0  0  0
   12.1520   -1.8960    4.1440 H   0  0  0  0  0
   10.8320   -0.5710    4.0970 H   0  0  0  0  0
    7.3170   -5.5700   -2.1110 H   0  0  0  0  0
    8.7080   -5.2240   -3.1670 H   0  0  0  0  0
    8.9300   -5.3100   -1.4030 H   0  0  0  0  0
    7.9430   -2.1760   -5.1860 H   0  0  0  0  0
    8.1820   -3.8970   -4.7980 H   0  0  0  0  0
    6.0510   -3.5460   -6.0180 H   0  0  0  0  0
    5.7520   -4.1360   -4.3650 H   0  0  0  0  0
    5.5130   -2.4150   -4.7530 H   0  0  0  0  0
    7.3440    3.0580   -4.7870 H   0  0  0  0  0
    7.9080    4.2410   -3.5830 H   0  0  0  0  0
    8.8610    2.7720   -3.9010 H   0  0  0  0  0
    3.0650    3.2920   -1.2760 H   0  0  0  0  0
    2.5260    5.7310    2.2700 H   0  0  0  0  0
    4.1930    6.3330    2.1010 H   0  0  0  0  0
    2.8410    7.2420    1.3830 H   0  0  0  0  0
   -3.0950    0.1840   -1.2140 H   0  0  0  0  0
   -2.8190   -1.5160   -0.7630 H   0  0  0  0  0
   -4.6840    0.2580    0.9610 H   0  0  0  0  0
   -4.2010   -3.3770   -0.4050 H   0  0  0  0  0
   -5.7650   -3.1260   -1.2170 H   0  0  0  0  0
   -4.3400   -2.1880   -1.7230 H   0  0  0  0  0
   -6.6930   -2.7110    1.1400 H   0  0  0  0  0
   -6.3720   -1.1120    1.8540 H   0  0  0  0  0
   -7.4170   -0.0250   -0.1150 H   0  0  0  0  0
   -7.7380   -1.6240   -0.8280 H   0  0  0  0  0
   -9.1420   -2.2150    1.1290 H   0  0  0  0  0
   -8.8210   -0.6160    1.8420 H   0  0  0  0  0
  -10.1300   -1.0690   -0.8760 H   0  0  0  0  0
   -8.9020    1.0720   -0.6420 H   0  0  0  0  0
  -10.6600    1.3460   -0.6890 H   0  0  0  0  0
   -9.7890    1.4170    0.8620 H   0  0  0  0  0
  -11.5230   -1.8440    1.0660 H   0  0  0  0  0
  -11.3790   -0.2180    1.7740 H   0  0  0  0  0
  -12.4330    0.7560   -0.2480 H   0  0  0  0  0
  -12.5770   -0.8710   -0.9560 H   0  0  0  0  0
  -14.0040   -1.5730    0.9460 H   0  0  0  0  0
  -13.8600    0.0540    1.6540 H   0  0  0  0  0
  -15.0050   -0.5350   -1.1120 H   0  0  0  0  0
  -14.9650    1.9840    0.6120 H   0  0  0  0  0
  -13.9870    1.7100   -0.8500 H   0  0  0  0  0
  -15.7590    1.8230   -0.9740 H   0  0  0  0  0
  -16.4040   -1.4200    0.7780 H   0  0  0  0  0
  -16.4390    0.2180    1.4740 H   0  0  0  0  0
  -17.4880    1.0770   -0.6020 H   0  0  0  0  0
  -17.4540   -0.5610   -1.2980 H   0  0  0  0  0
  -18.8920   -1.3760    0.5510 H   0  0  0  0  0
  -18.9270    0.2620    1.2460 H   0  0  0  0  0
  -19.9260    1.1010   -0.9000 H   0  0  0  0  0
  -20.0730   -1.8800   -1.5430 H   0  0  0  0  0
  -20.8120   -0.5740   -2.5010 H   0  0  0  0  0
  -19.0410   -0.6890   -2.3710 H   0  0  0  0  0
  -21.3620    0.4860    1.0250 H   0  0  0  0  0
  -22.1680    0.1120   -0.5170 H   0  0  0  0  0
  -21.4290   -1.1930    0.4400 H   0  0  0  0  0
  1  6  1  0  0  0
  1 17  1  0  0  0
  1 25  1  0  0  0
  1 33  1  0  0  0
  2  7  1  0  0  0
  2 37  2  0  0  0
  2 41  1  0  0  0
  3 10  2  0  0  0
  3 18  1  0  0  0
  3 66  1  0  0  0
  4 21  1  0  0  0
  4 26  2  0  0  0
  4 67  1  0  0  0
  5 29  1  0  0  0
  5 34  2  0  0  0
  5 68  1  0  0  0
  6  7  2  0  0  0
  6 10  1  0  0  0
  7  8  1  0  0  0
  8  9  1  0  0  0
  8 12  1  0  0  0
  8 69  1  0  0  0
  9 10  1  0  0  0
  9 11  1  0  0  0
  9 70  1  0  0  0
 11 71  1  0  0  0
 11 72  1  0  0  0
 11 73  1  0  0  0
 12 13  1  0  0  0
 12 74  1  0  0  0
 12 75  1  0  0  0
 13 14  1  0  0  0
 13 76  1  0  0  0
 13 77  1  0  0  0
 14 15  2  0  0  0
 14 16  1  0  0  0
 16 46  1  0  0  0
 17 18  1  0  0  0
 17 21  1  0  0  0
 18 19  2  0  0  0
 19 20  1  0  0  0
 19 22  1  0  0  0
 20 21  2  0  0  0
 20 23  1  0  0  0
 22 78  1  0  0  0
 22 79  1  0  0  0
 22 80  1  0  0  0
 23 24  2  0  0  0
 23 81  1  0  0  0
 24 82  1  0  0  0
 24 83  1  0  0  0
 25 26  1  0  0  0
 25 29  2  0  0  0
 26 27  1  0  0  0
 27 28  2  0  0  0
 27 30  1  0  0  0
 28 29  1  0  0  0
 28 31  1  0  0  0
 30 84  1  0  0  0
 30 85  1  0  0  0
 30 86  1  0  0  0
 31 32  1  0  0  0
 31 87  1  0  0  0
 31 88  1  0  0  0
 32 89  1  0  0  0
 32 90  1  0  0  0
 32 91  1  0  0  0
 33 34  1  0  0  0
 33 37  1  0  0  0
 34 35  1  0  0  0
 35 36  2  0  0  0
 35 38  1  0  0  0
 36 37  1  0  0  0
 36 39  1  0  0  0
 38 92  1  0  0  0
 38 93  1  0  0  0
 38 94  1  0  0  0
 39 40  2  0  0  0
 39 41  1  0  0  0
 41 42  1  0  0  0
 41 95  1  0  0  0
 42 43  2  0  0  0
 42 44  1  0  0  0
 44 45  1  0  0  0
 45 96  1  0  0  0
 45 97  1  0  0  0
 45 98  1  0  0  0
 46 47  1  0  0  0
 46 99  1  0  0  0
 46100  1  0  0  0
 47 48  2  0  0  0
 47101  1  0  0  0
 48 49  1  0  0  0
 48 50  1  0  0  0
 49102  1  0  0  0
 49103  1  0  0  0
 49104  1  0  0  0
 50 51  1  0  0  0
 50105  1  0  0  0
 50106  1  0  0  0
 51 52  1  0  0  0
 51107  1  0  0  0
 51108  1  0  0  0
 52 53  1  0  0  0
 52109  1  0  0  0
 52110  1  0  0  0
 53 54  1  0  0  0
 53 55  1  0  0  0
 53111  1  0  0  0
 54112  1  0  0  0
 54113  1  0  0  0
 54114  1  0  0  0
 55 56  1  0  0  0
 55115  1  0  0  0
 55116  1  0  0  0
 56 57  1  0  0  0
 56117  1  0  0  0
 56118  1  0  0  0
 57 58  1  0  0  0
 57119  1  0  0  0
 57120  1  0  0  0
 58 59  1  0  0  0
 58 60  1  0  0  0
 58121  1  0  0  0
 59122  1  0  0  0
 59123  1  0  0  0
 59124  1  0  0  0
 60 61  1  0  0  0
 60125  1  0  0  0
 60126  1  0  0  0
 61 62  1  0  0  0
 61127  1  0  0  0
 61128  1  0  0  0
 62 63  1  0  0  0
 62129  1  0  0  0
 62130  1  0  0  0
 63 64  1  0  0  0
 63 65  1  0  0  0
 63131  1  0  0  0
 64132  1  0  0  0
 64133  1  0  0  0
 64134  1  0  0  0
 65135  1  0  0  0
 65136  1  0  0  0
 65137  1  0  0  0
M  END
$$$$
