CLR
  CCTOOLS-1004241122

 74 77  0  0  1  0  0  0  0  0999 V2000
    1.3000   -1.0040   -4.5180 C   0  0  0  0  0
    1.6510   -0.3360   -5.8500 C   0  0  0  0  0
    0.3680    0.0110   -6.6060 C   0  0  0  0  0
   -0.4340    1.0410   -5.8060 C   0  0  0  0  0
   -0.6710    0.4850   -4.4120 C   0  0  0  0  0
   -1.8870    0.4760   -3.9510 C   0  0  0  0  0
   -2.2430   -0.0540   -2.5930 C   0  0  0  0  0
   -1.0260    0.0680   -1.6700 C   0  0  0  0  0
    0.1640   -0.6550   -2.3130 C   0  0  0  0  0
    0.5160   -0.0180   -3.6470 C   0  0  0  0  0
    1.3950   -0.6740   -1.4100 C   0  0  0  0  0
    1.0720   -1.2380   -0.0180 C   0  0  0  0  0
   -0.0840   -0.4300    0.5720 C   0  0  0  0  0
   -1.3200   -0.6190   -0.3490 C   0  0  0  0  0
   -2.4370    0.0050    0.4940 C   0  0  0  0  0
   -2.1200   -0.5070    1.9250 C   0  0  0  0  0
   -0.6070   -0.8390    1.9460 C   0  0  0  0  0
    0.2660    1.0580    0.5660 C   0  0  0  0  0
    1.4260    1.1720   -3.3400 C   0  0  0  0  0
    0.0950   -0.0360    3.0410 C   0  0  0  0  0
    1.5970   -0.3260    3.0020 C   0  0  0  0  0
   -0.4650   -0.4360    4.4070 C   0  0  0  0  0
    0.2380    0.3660    5.5030 C   0  0  0  0  0
   -0.3230   -0.0340    6.8690 C   0  0  0  0  0
    0.3800    0.7680    7.9650 C   0  0  0  0  0
   -0.1800    0.3680    9.3310 C   0  0  0  0  0
    1.8820    0.4780    7.9260 C   0  0  0  0  0
    0.7020    0.5560   -7.8850 O   0  0  0  0  0
    0.6920   -1.8890   -4.7050 H   0  0  0  0  0
    2.2170   -1.2940   -4.0050 H   0  0  0  0  0
    2.2530   -1.0170   -6.4500 H   0  0  0  0  0
    2.2180    0.5750   -5.6600 H   0  0  0  0  0
   -0.2290   -0.8900   -6.7410 H   0  0  0  0  0
   -1.3900    1.2230   -6.2960 H   0  0  0  0  0
    0.1280    1.9720   -5.7390 H   0  0  0  0  0
   -2.6770    0.8680   -4.5740 H   0  0  0  0  0
   -2.5330   -1.1020   -2.6760 H   0  0  0  0  0
   -3.0710    0.5220   -2.1820 H   0  0  0  0  0
   -0.7840    1.1170   -1.5030 H   0  0  0  0  0
   -0.1440   -1.6840   -2.4950 H   0  0  0  0  0
    2.1650   -1.2910   -1.8730 H   0  0  0  0  0
    1.7720    0.3420   -1.3030 H   0  0  0  0  0
    0.7360   -2.2710   -0.1050 H   0  0  0  0  0
    1.9550   -1.1860    0.6170 H   0  0  0  0  0
   -1.5150   -1.6790   -0.5090 H   0  0  0  0  0
   -3.4130   -0.3480    0.1640 H   0  0  0  0  0
   -2.3860    1.0940    0.4540 H   0  0  0  0  0
   -2.7030   -1.4040    2.1380 H   0  0  0  0  0
   -2.3440    0.2660    2.6580 H   0  0  0  0  0
   -0.4570   -1.9070    2.1050 H   0  0  0  0  0
    0.5460    1.3610   -0.4420 H   0  0  0  0  0
   -0.5980    1.6360    0.8930 H   0  0  0  0  0
    1.1000    1.2380    1.2450 H   0  0  0  0  0
    1.6180    1.7280   -4.2580 H   0  0  0  0  0
    0.9380    1.8240   -2.6160 H   0  0  0  0  0
    2.3690    0.8120   -2.9280 H   0  0  0  0  0
   -0.0730    1.0280    2.8770 H   0  0  0  0  0
    1.7660   -1.3900    3.1660 H   0  0  0  0  0
    1.9970   -0.0400    2.0290 H   0  0  0  0  0
    2.0980    0.2450    3.7830 H   0  0  0  0  0
   -0.2960   -1.5010    4.5720 H   0  0  0  0  0
   -1.5350   -0.2300    4.4350 H   0  0  0  0  0
    0.0690    1.4300    5.3390 H   0  0  0  0  0
    1.3070    0.1590    5.4750 H   0  0  0  0  0
   -0.1540   -1.0980    7.0330 H   0  0  0  0  0
   -1.3930    0.1720    6.8970 H   0  0  0  0  0
    0.2110    1.8330    7.8010 H   0  0  0  0  0
    0.3200    0.9400   10.1120 H   0  0  0  0  0
   -1.2500    0.5750    9.3590 H   0  0  0  0  0
   -0.0120   -0.6960    9.4950 H   0  0  0  0  0
    2.0500   -0.5850    8.0900 H   0  0  0  0  0
    2.2810    0.7640    6.9530 H   0  0  0  0  0
    2.3830    1.0500    8.7060 H   0  0  0  0  0
   -0.1320    0.7600   -8.3280 H   0  0  0  0  0
  1  2  1  0  0  0
  1 10  1  0  0  0
  1 29  1  0  0  0
  1 30  1  0  0  0
  2  3  1  0  0  0
  2 31  1  0  0  0
  2 32  1  0  0  0
  3  4  1  0  0  0
  3 28  1  0  0  0
  3 33  1  0  0  0
  4  5  1  0  0  0
  4 34  1  0  0  0
  4 35  1  0  0  0
  5  6  2  0  0  0
  5 10  1  0  0  0
  6  7  1  0  0  0
  6 36  1  0  0  0
  7  8  1  0  0  0
  7 37  1  0  0  0
  7 38  1  0  0  0
  8  9  1  0  0  0
  8 14  1  0  0  0
  8 39  1  0  0  0
  9 10  1  0  0  0
  9 11  1  0  0  0
  9 40  1  0  0  0
 10 19  1  0  0  0
 11 12  1  0  0  0
 11 41  1  0  0  0
 11 42  1  0  0  0
 12 13  1  0  0  0
 12 43  1  0  0  0
 12 44  1  0  0  0
 13 14  1  0  0  0
 13 17  1  0  0  0
 13 18  1  0  0  0
 14 15  1  0  0  0
 14 45  1  0  0  0
 15 16  1  0  0  0
 15 46  1  0  0  0
 15 47  1  0  0  0
 16 17  1  0  0  0
 16 48  1  0  0  0
 16 49  1  0  0  0
 17 20  1  0  0  0
 17 50  1  0  0  0
 18 51  1  0  0  0
 18 52  1  0  0  0
 18 53  1  0  0  0
 19 54  1  0  0  0
 19 55  1  0  0  0
 19 56  1  0  0  0
 20 21  1  0  0  0
 20 22  1  0  0  0
 20 57  1  0  0  0
 21 58  1  0  0  0
 21 59  1  0  0  0
 21 60  1  0  0  0
 22 23  1  0  0  0
 22 61  1  0  0  0
 22 62  1  0  0  0
 23 24  1  0  0  0
 23 63  1  0  0  0
 23 64  1  0  0  0
 24 25  1  0  0  0
 24 65  1  0  0  0
 24 66  1  0  0  0
 25 26  1  0  0  0
 25 27  1  0  0  0
 25 67  1  0  0  0
 26 68  1  0  0  0
 26 69  1  0  0  0
 26 70  1  0  0  0
 27 71  1  0  0  0
 27 72  1  0  0  0
 27 73  1  0  0  0
 28 74  1  0  0  0
M  END
$$$$
