CM3
  CCTOOLS-0919241038

 67 71  0  0  1  0  0  0  0  0999 V2000
    0.1250   -1.4440    2.2630 C   0  0  0  0  0
   -0.9600   -0.6910    1.4840 C   0  0  0  0  0
   -0.9370    0.6760    1.8640 O   0  0  0  0  0
   -1.1700    0.8060    3.1930 C   0  0  0  0  0
   -1.7100    2.0190    3.6230 C   0  0  0  0  0
   -1.9670    2.2410    4.9590 C   0  0  0  0  0
   -1.6890    1.2520    5.8910 C   0  0  0  0  0
   -1.9370    1.4670    7.2110 O   0  0  0  0  0
   -1.1580    0.0430    5.4680 C   0  0  0  0  0
   -0.8890   -0.9230    6.3720 F   0  0  0  0  0
   -0.9020   -0.1790    4.1230 C   0  0  0  0  0
   -0.3350   -1.5200    3.7230 C   0  0  0  0  0
   -1.4140   -2.5960    3.8650 C   0  0  0  0  0
    1.4320   -0.6980    2.1750 C   0  0  0  0  0
    1.6800    0.3590    3.0300 C   0  0  0  0  0
    2.8790    1.0420    2.9560 C   0  0  0  0  0
    3.8290    0.6710    2.0150 C   0  0  0  0  0
    5.0070    1.3450    1.9360 O   0  0  0  0  0
    3.5750   -0.3860    1.1550 C   0  0  0  0  0
    2.3770   -1.0680    1.2370 C   0  0  0  0  0
   -0.6930   -0.8070    0.0050 C   0  0  0  0  0
    0.0870    0.1390   -0.6310 C   0  0  0  0  0
    0.3380    0.0310   -1.9850 C   0  0  0  0  0
   -0.2020   -1.0220   -2.7080 C   0  0  0  0  0
   -0.9890   -1.9680   -2.0670 C   0  0  0  0  0
   -1.2330   -1.8580   -0.7120 C   0  0  0  0  0
    0.0380   -1.1270   -4.0410 O   0  0  0  0  0
    0.8680   -0.0200   -4.4000 C   0  0  0  0  0
    1.1780   -0.0790   -5.8970 C   0  0  0  0  0
   -0.0750   -0.0180   -6.6590 N   0  0  0  0  0
   -0.6540    1.3060   -6.4140 C   0  0  0  0  0
   -1.9670    1.4480   -7.1860 C   0  0  0  0  0
   -1.6870    1.3160   -8.6860 C   0  0  0  0  0
   -0.9700   -0.0130   -8.9420 C   0  0  0  0  0
    0.2910   -0.0790   -8.0780 C   0  0  0  0  0
    0.2430   -2.4500    1.8580 H   0  0  0  0  0
   -1.9360   -1.1170    1.7140 H   0  0  0  0  0
   -1.9280    2.7930    2.9020 H   0  0  0  0  0
   -2.3840    3.1840    5.2800 H   0  0  0  0  0
   -2.8430    1.1720    7.3770 H   0  0  0  0  0
    0.5120   -1.7670    4.3620 H   0  0  0  0  0
   -1.7410   -2.6480    4.9040 H   0  0  0  0  0
   -2.2630   -2.3440    3.2290 H   0  0  0  0  0
   -1.0070   -3.5610    3.5630 H   0  0  0  0  0
    0.9400    0.6470    3.7620 H   0  0  0  0  0
    3.0750    1.8650    3.6270 H   0  0  0  0  0
    4.8740    2.0690    1.3100 H   0  0  0  0  0
    4.3130   -0.6760    0.4220 H   0  0  0  0  0
    2.1780   -1.8920    0.5670 H   0  0  0  0  0
    0.5070    0.9590   -0.0680 H   0  0  0  0  0
    0.9510    0.7680   -2.4820 H   0  0  0  0  0
   -1.4110   -2.7890   -2.6280 H   0  0  0  0  0
   -1.8460   -2.5940   -0.2130 H   0  0  0  0  0
    0.3490    0.9100   -4.1720 H   0  0  0  0  0
    1.7980   -0.0650   -3.8340 H   0  0  0  0  0
    1.8110    0.7640   -6.1700 H   0  0  0  0  0
    1.6970   -1.0110   -6.1240 H   0  0  0  0  0
   -0.8450    1.4260   -5.3480 H   0  0  0  0  0
    0.0450    2.0740   -6.7450 H   0  0  0  0  0
   -2.4050    2.4260   -6.9830 H   0  0  0  0  0
   -2.6590    0.6660   -6.8740 H   0  0  0  0  0
   -1.0540    2.1400   -9.0140 H   0  0  0  0  0
   -2.6270    1.3350   -9.2360 H   0  0  0  0  0
   -0.6940   -0.0810   -9.9940 H   0  0  0  0  0
   -1.6320   -0.8390   -8.6830 H   0  0  0  0  0
    0.9400    0.7610   -8.3210 H   0  0  0  0  0
    0.8170   -1.0120   -8.2770 H   0  0  0  0  0
  1  2  1  0  0  0
  1 12  1  0  0  0
  1 14  1  0  0  0
  1 36  1  0  0  0
  2  3  1  0  0  0
  2 21  1  0  0  0
  2 37  1  0  0  0
  3  4  1  0  0  0
  4  5  2  0  0  0
  4 11  1  0  0  0
  5  6  1  0  0  0
  5 38  1  0  0  0
  6  7  2  0  0  0
  6 39  1  0  0  0
  7  8  1  0  0  0
  7  9  1  0  0  0
  8 40  1  0  0  0
  9 10  1  0  0  0
  9 11  2  0  0  0
 11 12  1  0  0  0
 12 13  1  0  0  0
 12 41  1  0  0  0
 13 42  1  0  0  0
 13 43  1  0  0  0
 13 44  1  0  0  0
 14 15  2  0  0  0
 14 20  1  0  0  0
 15 16  1  0  0  0
 15 45  1  0  0  0
 16 17  2  0  0  0
 16 46  1  0  0  0
 17 18  1  0  0  0
 17 19  1  0  0  0
 18 47  1  0  0  0
 19 20  2  0  0  0
 19 48  1  0  0  0
 20 49  1  0  0  0
 21 22  2  0  0  0
 21 26  1  0  0  0
 22 23  1  0  0  0
 22 50  1  0  0  0
 23 24  2  0  0  0
 23 51  1  0  0  0
 24 25  1  0  0  0
 24 27  1  0  0  0
 25 26  2  0  0  0
 25 52  1  0  0  0
 26 53  1  0  0  0
 27 28  1  0  0  0
 28 29  1  0  0  0
 28 54  1  0  0  0
 28 55  1  0  0  0
 29 30  1  0  0  0
 29 56  1  0  0  0
 29 57  1  0  0  0
 30 31  1  0  0  0
 30 35  1  0  0  0
 31 32  1  0  0  0
 31 58  1  0  0  0
 31 59  1  0  0  0
 32 33  1  0  0  0
 32 60  1  0  0  0
 32 61  1  0  0  0
 33 34  1  0  0  0
 33 62  1  0  0  0
 33 63  1  0  0  0
 34 35  1  0  0  0
 34 64  1  0  0  0
 34 65  1  0  0  0
 35 66  1  0  0  0
 35 67  1  0  0  0
M  END
$$$$
