CM4
  CCTOOLS-0919241038

 64 68  0  0  1  0  0  0  0  0999 V2000
    0.1930    1.4620    2.0840 C   0  0  0  0  0
    1.1380    0.4450    1.4300 C   0  0  0  0  0
    0.8790   -0.8400    1.9720 O   0  0  0  0  0
    1.0800   -0.8430    3.3120 C   0  0  0  0  0
    1.4010   -2.0680    3.9000 C   0  0  0  0  0
    1.6100   -2.1620    5.2590 C   0  0  0  0  0
    1.5010   -1.0310    6.0550 C   0  0  0  0  0
    1.7020   -1.1190    7.3980 O   0  0  0  0  0
    1.1880    0.1850    5.4760 C   0  0  0  0  0
    0.9800    0.2800    4.1090 C   0  0  0  0  0
    0.6540    1.6390    3.5350 C   0  0  0  0  0
    1.9010    2.5240    3.5740 C   0  0  0  0  0
   -1.2200    0.9430    2.0530 C   0  0  0  0  0
   -2.0870    1.3580    1.0590 C   0  0  0  0  0
   -3.3820    0.8790    1.0260 C   0  0  0  0  0
   -3.8160   -0.0100    1.9970 C   0  0  0  0  0
   -5.0920   -0.4780    1.9700 O   0  0  0  0  0
   -2.9470   -0.4210    2.9970 C   0  0  0  0  0
   -1.6510    0.0560    3.0230 C   0  0  0  0  0
    0.9020    0.4210   -0.0580 C   0  0  0  0  0
   -0.0250   -0.4500   -0.5960 C   0  0  0  0  0
   -0.2470   -0.4700   -1.9590 C   0  0  0  0  0
    0.4680    0.3790   -2.7900 C   0  0  0  0  0
    1.4030    1.2490   -2.2480 C   0  0  0  0  0
    1.6180    1.2680   -0.8840 C   0  0  0  0  0
    0.2550    0.3580   -4.1320 O   0  0  0  0  0
   -0.7490   -0.6270   -4.3750 C   0  0  0  0  0
   -1.0380   -0.7020   -5.8760 C   0  0  0  0  0
    0.1900   -1.0680   -6.5930 N   0  0  0  0  0
    1.1500    0.0350   -6.3820 C   0  0  0  0  0
    1.8320    0.2340   -7.7580 C   0  0  0  0  0
    0.6500   -0.0130   -8.7320 C   0  0  0  0  0
   -0.1550   -1.1230   -8.0250 C   0  0  0  0  0
    0.2520    2.4150    1.5570 H   0  0  0  0  0
    2.1720    0.7240    1.6320 H   0  0  0  0  0
    1.4870   -2.9510    3.2840 H   0  0  0  0  0
    1.8570   -3.1150    5.7030 H   0  0  0  0  0
    2.6440   -0.9630    7.5500 H   0  0  0  0  0
    1.1050    1.0680    6.0930 H   0  0  0  0  0
   -0.1410    2.1020    4.1170 H   0  0  0  0  0
    2.2270    2.6480    4.6070 H   0  0  0  0  0
    2.6970    2.0560    2.9950 H   0  0  0  0  0
    1.6670    3.5000    3.1470 H   0  0  0  0  0
   -1.7480    2.0510    0.3030 H   0  0  0  0  0
   -4.0570    1.2000    0.2460 H   0  0  0  0  0
   -5.6260    0.1340    2.4920 H   0  0  0  0  0
   -3.2820   -1.1140    3.7540 H   0  0  0  0  0
   -0.9730   -0.2620    3.8010 H   0  0  0  0  0
   -0.5830   -1.1110    0.0500 H   0  0  0  0  0
   -0.9760   -1.1480   -2.3780 H   0  0  0  0  0
    1.9620    1.9110   -2.8930 H   0  0  0  0  0
    2.3450    1.9460   -0.4610 H   0  0  0  0  0
   -0.3990   -1.5980   -4.0230 H   0  0  0  0  0
   -1.6610   -0.3550   -3.8430 H   0  0  0  0  0
   -1.8050   -1.4540   -6.0610 H   0  0  0  0  0
   -1.3880    0.2680   -6.2270 H   0  0  0  0  0
    0.6260    0.9420   -6.0830 H   0  0  0  0  0
    1.8890   -0.2420   -5.6300 H   0  0  0  0  0
    2.6250   -0.4970   -7.9110 H   0  0  0  0  0
    2.2150    1.2500   -7.8610 H   0  0  0  0  0
    1.0140   -0.3580   -9.7000 H   0  0  0  0  0
    0.0480    0.8870   -8.8450 H   0  0  0  0  0
    0.1140   -2.0960   -8.4350 H   0  0  0  0  0
   -1.2220   -0.9460   -8.1560 H   0  0  0  0  0
  1  2  1  0  0  0
  1 11  1  0  0  0
  1 13  1  0  0  0
  1 34  1  0  0  0
  2  3  1  0  0  0
  2 20  1  0  0  0
  2 35  1  0  0  0
  3  4  1  0  0  0
  4  5  2  0  0  0
  4 10  1  0  0  0
  5  6  1  0  0  0
  5 36  1  0  0  0
  6  7  2  0  0  0
  6 37  1  0  0  0
  7  8  1  0  0  0
  7  9  1  0  0  0
  8 38  1  0  0  0
  9 10  2  0  0  0
  9 39  1  0  0  0
 10 11  1  0  0  0
 11 12  1  0  0  0
 11 40  1  0  0  0
 12 41  1  0  0  0
 12 42  1  0  0  0
 12 43  1  0  0  0
 13 14  2  0  0  0
 13 19  1  0  0  0
 14 15  1  0  0  0
 14 44  1  0  0  0
 15 16  2  0  0  0
 15 45  1  0  0  0
 16 17  1  0  0  0
 16 18  1  0  0  0
 17 46  1  0  0  0
 18 19  2  0  0  0
 18 47  1  0  0  0
 19 48  1  0  0  0
 20 21  2  0  0  0
 20 25  1  0  0  0
 21 22  1  0  0  0
 21 49  1  0  0  0
 22 23  2  0  0  0
 22 50  1  0  0  0
 23 24  1  0  0  0
 23 26  1  0  0  0
 24 25  2  0  0  0
 24 51  1  0  0  0
 25 52  1  0  0  0
 26 27  1  0  0  0
 27 28  1  0  0  0
 27 53  1  0  0  0
 27 54  1  0  0  0
 28 29  1  0  0  0
 28 55  1  0  0  0
 28 56  1  0  0  0
 29 30  1  0  0  0
 29 33  1  0  0  0
 30 31  1  0  0  0
 30 57  1  0  0  0
 30 58  1  0  0  0
 31 32  1  0  0  0
 31 59  1  0  0  0
 31 60  1  0  0  0
 32 33  1  0  0  0
 32 61  1  0  0  0
 32 62  1  0  0  0
 33 63  1  0  0  0
 33 64  1  0  0  0
M  END
$$$$
