CME
  CCTOOLS-1004241123

 22 21  0  0  1  0  0  0  0  0999 V2000
    1.9710   -0.4330   -2.7430 N   0  0  0  0  0
    0.7560   -0.3890   -1.9170 C   0  0  0  0  0
    0.9720    0.5680   -0.7440 C   0  0  0  0  0
   -0.5380    0.6490    0.2550 S   0  0  0  0  0
   -0.4230   -1.1550    1.2210 S   0  0  0  0  0
    0.5120   -0.6640    2.6950 C   0  0  0  0  0
   -0.2680    0.4030    3.4630 C   0  0  0  0  0
    0.4680    0.7900    4.6250 O   0  0  0  0  0
   -0.4010    0.0910   -2.7530 C   0  0  0  0  0
   -0.2080    0.8510   -3.6720 O   0  0  0  0  0
   -1.6470   -0.3240   -2.4760 O   0  0  0  0  0
    2.7180   -0.7490   -2.1430 H   0  0  0  0  0
    2.1850    0.5190   -2.9950 H   0  0  0  0  0
    0.5400   -1.3870   -1.5360 H   0  0  0  0  0
    1.7960    0.2090   -0.1280 H   0  0  0  0  0
    1.2090    1.5620   -1.1250 H   0  0  0  0  0
    0.6650   -1.5330    3.3350 H   0  0  0  0  0
    1.4790   -0.2600    2.3940 H   0  0  0  0  0
   -0.4210    1.2720    2.8240 H   0  0  0  0  0
   -1.2350   -0.0000    3.7650 H   0  0  0  0  0
   -0.0570    1.4620    5.0790 H   0  0  0  0  0
   -2.3900   -0.0150   -3.0120 H   0  0  0  0  0
  1  2  1  0  0  0
  1 12  1  0  0  0
  1 13  1  0  0  0
  2  3  1  0  0  0
  2  9  1  0  0  0
  2 14  1  0  0  0
  3  4  1  0  0  0
  3 15  1  0  0  0
  3 16  1  0  0  0
  4  5  1  0  0  0
  5  6  1  0  0  0
  6  7  1  0  0  0
  6 17  1  0  0  0
  6 18  1  0  0  0
  7  8  1  0  0  0
  7 19  1  0  0  0
  7 20  1  0  0  0
  8 21  1  0  0  0
  9 10  2  0  0  0
  9 11  1  0  0  0
 11 22  1  0  0  0
M  END
$$$$
