CN2
  CCTOOLS-0919241039

 55 57  0  0  1  0  0  0  0  0999 V2000
   -2.4320   -1.0320    1.7220 O   0  0  0  0  0
   -2.5310   -0.0250    2.3920 C   0  0  0  0  0
   -3.3160   -0.0500    3.6780 C   0  0  0  0  0
   -3.9830   -1.7150    3.9480 S   0  0  0  0  0
   -1.9400    1.1140    1.9850 N   0  0  0  0  0
   -1.1770    1.1380    0.7340 C   0  0  0  0  0
    0.2660    0.7870    1.0280 C   0  0  0  0  0
    0.6680    0.9370    2.3030 C   0  0  0  0  0
   -1.3000    2.5120    0.1080 C   0  0  0  0  0
   -0.2540    2.7120   -0.9850 C   0  0  0  0  0
   -0.1820    1.4810   -1.8520 C   0  0  0  0  0
   -0.7520    1.4840   -3.1080 C   0  0  0  0  0
   -0.6760    0.3520   -3.9090 C   0  0  0  0  0
   -0.0260   -0.7880   -3.4530 C   0  0  0  0  0
    0.5460   -0.8000   -2.1880 C   0  0  0  0  0
    1.1810   -1.9120   -1.7330 O   0  0  0  0  0
    0.1770   -2.7600   -1.1710 C   0  0  0  0  0
    0.0490   -1.8920   -4.2450 O   0  0  0  0  0
    1.3030   -1.8260   -4.9270 C   0  0  0  0  0
   -1.2390    0.3610   -5.1460 O   0  0  0  0  0
   -1.8220    1.6530   -5.3260 C   0  0  0  0  0
    0.4640    0.3410   -1.3850 C   0  0  0  0  0
    1.0660    0.3280   -0.0180 C   0  0  0  0  0
    2.3560   -0.1220    0.0830 C   0  0  0  0  0
    3.2080   -0.2220    1.1210 C   0  0  0  0  0
    3.0160    0.1370    2.4180 C   0  0  0  0  0
    1.8500    0.6870    2.9390 C   0  0  0  0  0
    1.8930    0.9990    4.1220 O   0  0  0  0  0
    4.0460   -0.0600    3.2770 O   0  0  0  0  0
    5.1570   -0.5030    2.4940 C   0  0  0  0  0
   -2.6610    0.2170    4.5080 H   0  0  0  0  0
   -4.1360    0.6640    3.6170 H   0  0  0  0  0
   -4.6280   -1.5220    5.1120 H   0  0  0  0  0
   -2.0190    1.9200    2.5200 H   0  0  0  0  0
   -1.5920    0.3970    0.0510 H   0  0  0  0  0
   -0.0980    1.3310    2.9540 H   0  0  0  0  0
   -2.2950    2.6200   -0.3240 H   0  0  0  0  0
   -1.1610    3.2700    0.8780 H   0  0  0  0  0
   -0.5290    3.5710   -1.5970 H   0  0  0  0  0
    0.7180    2.8910   -0.5280 H   0  0  0  0  0
   -1.2590    2.3670   -3.4680 H   0  0  0  0  0
    0.6500   -3.6290   -0.7130 H   0  0  0  0  0
   -0.3810   -2.2090   -0.4140 H   0  0  0  0  0
   -0.5010   -3.0890   -1.9570 H   0  0  0  0  0
    1.4490   -2.7360   -5.5090 H   0  0  0  0  0
    1.3090   -0.9640   -5.5940 H   0  0  0  0  0
    2.1080   -1.7280   -4.1990 H   0  0  0  0  0
   -2.2880    1.7070   -6.3100 H   0  0  0  0  0
   -2.5750    1.8220   -4.5570 H   0  0  0  0  0
   -1.0470    2.4150   -5.2490 H   0  0  0  0  0
    2.7710   -0.4640   -0.8520 H   0  0  0  0  0
    4.1750   -0.6460    0.8920 H   0  0  0  0  0
    6.0370   -0.5900    3.1300 H   0  0  0  0  0
    4.9280   -1.4740    2.0550 H   0  0  0  0  0
    5.3520    0.2170    1.7000 H   0  0  0  0  0
  1  2  2  0  0  0
  2  3  1  0  0  0
  2  5  1  0  0  0
  3  4  1  0  0  0
  3 31  1  0  0  0
  3 32  1  0  0  0
  4 33  1  0  0  0
  5  6  1  0  0  0
  5 34  1  0  0  0
  6  7  1  0  0  0
  6  9  1  0  0  0
  6 35  1  0  0  0
  7  8  2  0  0  0
  7 23  1  0  0  0
  8 27  1  0  0  0
  8 36  1  0  0  0
  9 10  1  0  0  0
  9 37  1  0  0  0
  9 38  1  0  0  0
 10 11  1  0  0  0
 10 39  1  0  0  0
 10 40  1  0  0  0
 11 12  1  0  0  0
 11 22  2  0  0  0
 12 13  2  0  0  0
 12 41  1  0  0  0
 13 14  1  0  0  0
 13 20  1  0  0  0
 14 15  2  0  0  0
 14 18  1  0  0  0
 15 16  1  0  0  0
 15 22  1  0  0  0
 16 17  1  0  0  0
 17 42  1  0  0  0
 17 43  1  0  0  0
 17 44  1  0  0  0
 18 19  1  0  0  0
 19 45  1  0  0  0
 19 46  1  0  0  0
 19 47  1  0  0  0
 20 21  1  0  0  0
 21 48  1  0  0  0
 21 49  1  0  0  0
 21 50  1  0  0  0
 22 23  1  0  0  0
 23 24  2  0  0  0
 24 25  1  0  0  0
 24 51  1  0  0  0
 25 26  2  0  0  0
 25 52  1  0  0  0
 26 27  1  0  0  0
 26 29  1  0  0  0
 27 28  2  0  0  0
 29 30  1  0  0  0
 30 53  1  0  0  0
 30 54  1  0  0  0
 30 55  1  0  0  0
M  END
$$$$
