COA
  CCTOOLS-1004241123

 84 86  0  0  1  0  0  0  0  0999 V2000
    5.3190    1.8440   -8.0480 N   0  0  0  0  0
    4.0990    1.8020   -8.5490 C   0  0  0  0  0
    3.0500    1.4650   -7.8290 N   0  0  0  0  0
    3.1840    1.1430   -6.5460 C   0  0  0  0  0
    4.4630    1.1770   -5.9640 C   0  0  0  0  0
    5.5510    1.5430   -6.7740 C   0  0  0  0  0
    6.8340    1.5900   -6.2580 N   0  0  0  0  0
    4.3200    0.8170   -4.6660 N   0  0  0  0  0
    3.0660    0.5750   -4.4190 C   0  0  0  0  0
    2.3240    0.7650   -5.5470 N   0  0  0  0  0
    0.8740    0.5920   -5.6710 C   0  0  0  0  0
    0.5220   -0.8870   -5.9720 C   0  0  0  0  0
    0.5740   -1.1480   -7.3760 O   0  0  0  0  0
   -0.9330   -0.9880   -5.4450 C   0  0  0  0  0
   -1.8640   -0.8460   -6.5190 O   0  0  0  0  0
   -2.7560   -2.1860   -6.5420 P   0  0  0  0  0
   -3.4630   -2.3310   -5.2500 O   0  0  0  0  0
   -3.8330   -2.0940   -7.7350 O   0  0  0  0  0
   -1.8020   -3.4620   -6.7770 O   0  0  0  0  0
   -1.0550    0.1880   -4.4570 C   0  0  0  0  0
    0.2230    0.8430   -4.4070 O   0  0  0  0  0
   -1.4260   -0.3350   -3.0680 C   0  0  0  0  0
   -1.5300    0.7600   -2.1580 O   0  0  0  0  0
   -1.9210    0.1400   -0.7240 P   0  0  0  0  0
   -0.8660   -0.8030   -0.2920 O   0  0  0  0  0
   -3.3240   -0.6400   -0.8420 O   0  0  0  0  0
   -2.0550    1.3260    0.3550 O   0  0  0  0  0
   -2.4450    0.6370    1.7570 P   0  0  0  0  0
   -3.7270   -0.0870    1.6110 O   0  0  0  0  0
   -1.2890   -0.3970    2.1860 O   0  0  0  0  0
   -2.5960    1.7720    2.8890 O   0  0  0  0  0
   -3.1010    2.1280    5.2250 C   0  0  0  0  0
   -2.9410    1.1010    4.1030 C   0  0  0  0  0
   -1.7840    2.8840    5.4160 C   0  0  0  0  0
   -4.2080    3.1180    4.8570 C   0  0  0  0  0
   -3.4700    1.4100    6.5250 C   0  0  0  0  0
   -4.7640    0.8190    6.3910 O   0  0  0  0  0
   -2.4530    0.3350    6.8110 C   0  0  0  0  0
   -2.7580   -0.8320    6.6990 O   0  0  0  0  0
   -1.2050    0.6720    7.1910 N   0  0  0  0  0
   -0.2400   -0.3700    7.5470 C   0  0  0  0  0
    1.0890    0.2750    7.9380 C   0  0  0  0  0
    2.0810   -0.7970    8.3050 C   0  0  0  0  0
    1.7560   -1.9650    8.2580 O   0  0  0  0  0
    3.3290   -0.4600    8.6850 N   0  0  0  0  0
    4.2940   -1.5040    9.0410 C   0  0  0  0  0
    5.6240   -0.8570    9.4320 C   0  0  0  0  0
    6.8180   -2.1500    9.8730 S   0  0  0  0  0
    3.9550    2.0540   -9.5900 H   0  0  0  0  0
    7.5770    1.8440   -6.8270 H   0  0  0  0  0
    6.9900    1.3680   -5.3260 H   0  0  0  0  0
    2.6700    0.2690   -3.4620 H   0  0  0  0  0
    0.4750    1.2470   -6.4450 H   0  0  0  0  0
    1.1820   -1.5620   -5.4270 H   0  0  0  0  0
    1.4840   -0.9780   -7.6580 H   0  0  0  0  0
   -1.0870   -1.9360   -4.9300 H   0  0  0  0  0
   -4.3450   -2.9140   -7.7130 H   0  0  0  0  0
   -1.3620   -3.3280   -7.6280 H   0  0  0  0  0
   -1.8160    0.8860   -4.8050 H   0  0  0  0  0
   -0.6550   -1.0230   -2.7210 H   0  0  0  0  0
   -2.3820   -0.8570   -3.1200 H   0  0  0  0  0
   -3.9820    0.0080   -1.1250 H   0  0  0  0  0
   -0.4730    0.1140    2.2700 H   0  0  0  0  0
   -2.1520    0.3960    4.3650 H   0  0  0  0  0
   -3.8790    0.5630    3.9670 H   0  0  0  0  0
   -0.9720    2.1700    5.5560 H   0  0  0  0  0
   -1.5840    3.4940    4.5350 H   0  0  0  0  0
   -1.8580    3.5260    6.2940 H   0  0  0  0  0
   -5.1590    2.5900    4.7870 H   0  0  0  0  0
   -4.2760    3.8890    5.6250 H   0  0  0  0  0
   -3.9780    3.5800    3.8970 H   0  0  0  0  0
   -3.4810    2.1270    7.3460 H   0  0  0  0  0
   -4.7100    0.1920    5.6560 H   0  0  0  0  0
   -0.9450    1.6060    7.2290 H   0  0  0  0  0
   -0.6240   -0.9480    8.3880 H   0  0  0  0  0
   -0.0870   -1.0300    6.6930 H   0  0  0  0  0
    1.4730    0.8530    7.0980 H   0  0  0  0  0
    0.9350    0.9350    8.7930 H   0  0  0  0  0
    3.5890    0.4730    8.7220 H   0  0  0  0  0
    3.9100   -2.0820    9.8810 H   0  0  0  0  0
    4.4480   -2.1630    8.1870 H   0  0  0  0  0
    6.0080   -0.2790    8.5910 H   0  0  0  0  0
    5.4700   -0.1980   10.2860 H   0  0  0  0  0
    7.8850   -1.3880   10.1750 H   0  0  0  0  0
  1  2  1  0  0  0
  1  6  2  0  0  0
  2  3  2  0  0  0
  2 49  1  0  0  0
  3  4  1  0  0  0
  4  5  2  0  0  0
  4 10  1  0  0  0
  5  6  1  0  0  0
  5  8  1  0  0  0
  6  7  1  0  0  0
  7 50  1  0  0  0
  7 51  1  0  0  0
  8  9  2  0  0  0
  9 10  1  0  0  0
  9 52  1  0  0  0
 10 11  1  0  0  0
 11 12  1  0  0  0
 11 21  1  0  0  0
 11 53  1  0  0  0
 12 13  1  0  0  0
 12 14  1  0  0  0
 12 54  1  0  0  0
 13 55  1  0  0  0
 14 15  1  0  0  0
 14 20  1  0  0  0
 14 56  1  0  0  0
 15 16  1  0  0  0
 16 17  2  0  0  0
 16 18  1  0  0  0
 16 19  1  0  0  0
 18 57  1  0  0  0
 19 58  1  0  0  0
 20 21  1  0  0  0
 20 22  1  0  0  0
 20 59  1  0  0  0
 22 23  1  0  0  0
 22 60  1  0  0  0
 22 61  1  0  0  0
 23 24  1  0  0  0
 24 25  2  0  0  0
 24 26  1  0  0  0
 24 27  1  0  0  0
 26 62  1  0  0  0
 27 28  1  0  0  0
 28 29  2  0  0  0
 28 30  1  0  0  0
 28 31  1  0  0  0
 30 63  1  0  0  0
 31 33  1  0  0  0
 32 33  1  0  0  0
 32 34  1  0  0  0
 32 35  1  0  0  0
 32 36  1  0  0  0
 33 64  1  0  0  0
 33 65  1  0  0  0
 34 66  1  0  0  0
 34 67  1  0  0  0
 34 68  1  0  0  0
 35 69  1  0  0  0
 35 70  1  0  0  0
 35 71  1  0  0  0
 36 37  1  0  0  0
 36 38  1  0  0  0
 36 72  1  0  0  0
 37 73  1  0  0  0
 38 39  2  0  0  0
 38 40  1  0  0  0
 40 41  1  0  0  0
 40 74  1  0  0  0
 41 42  1  0  0  0
 41 75  1  0  0  0
 41 76  1  0  0  0
 42 43  1  0  0  0
 42 77  1  0  0  0
 42 78  1  0  0  0
 43 44  2  0  0  0
 43 45  1  0  0  0
 45 46  1  0  0  0
 45 79  1  0  0  0
 46 47  1  0  0  0
 46 80  1  0  0  0
 46 81  1  0  0  0
 47 48  1  0  0  0
 47 82  1  0  0  0
 47 83  1  0  0  0
 48 84  1  0  0  0
M  END
$$$$
