COI
  CCTOOLS-1004241123

 19 18  0  0  0  0  0  0  0  0999 V2000
    1.8770   -0.2580    0.0490 C   0  0  0  0  0
    2.0770   -1.4240    0.3160 O   0  0  0  0  0
    2.9130    0.5930   -0.0680 O   0  0  0  0  0
    0.4840    0.2310   -0.1550 C   0  0  0  0  0
    0.2840    1.3920   -0.4210 O   0  0  0  0  0
   -0.6760   -0.7230   -0.0300 C   0  0  0  0  0
   -1.9850    0.0270   -0.2850 C   0  0  0  0  0
   -3.1500   -0.9640   -0.2810 C   0  0  0  0  0
   -2.1970    1.0690    0.8150 C   0  0  0  0  0
    3.7980    0.2290    0.0690 H   0  0  0  0  0
   -0.5680   -1.5240   -0.7620 H   0  0  0  0  0
   -0.6900   -1.1480    0.9740 H   0  0  0  0  0
   -1.9340    0.5260   -1.2530 H   0  0  0  0  0
   -3.2000   -1.4620    0.6870 H   0  0  0  0  0
   -4.0820   -0.4290   -0.4630 H   0  0  0  0  0
   -2.9990   -1.7060   -1.0650 H   0  0  0  0  0
   -3.1290    1.6040    0.6330 H   0  0  0  0  0
   -2.2470    0.5710    1.7830 H   0  0  0  0  0
   -1.3670    1.7750    0.8120 H   0  0  0  0  0
  1  2  2  0  0  0
  1  3  1  0  0  0
  1  4  1  0  0  0
  3 10  1  0  0  0
  4  5  2  0  0  0
  4  6  1  0  0  0
  6  7  1  0  0  0
  6 11  1  0  0  0
  6 12  1  0  0  0
  7  8  1  0  0  0
  7  9  1  0  0  0
  7 13  1  0  0  0
  8 14  1  0  0  0
  8 15  1  0  0  0
  8 16  1  0  0  0
  9 17  1  0  0  0
  9 18  1  0  0  0
  9 19  1  0  0  0
M  END
$$$$
