CP6
  CCTOOLS-0919241039

 30 31  0  0  0  0  0  0  0  0999 V2000
   -1.3900   -0.0260   -3.0710 N   0  0  0  0  0
   -0.2460    0.0960   -3.7290 C   0  0  0  0  0
   -1.4110   -0.0390   -1.7440 C   0  0  0  0  0
   -0.1950    0.0740   -1.0430 C   0  0  0  0  0
    0.9790    0.2060   -1.7790 C   0  0  0  0  0
    0.9140    0.2100   -3.1010 N   0  0  0  0  0
   -0.1670    0.0640    0.4380 C   0  0  0  0  0
   -0.4810   -1.1000    1.1360 C   0  0  0  0  0
   -0.4530   -1.1040    2.5160 C   0  0  0  0  0
   -0.1140    0.0450    3.2070 C   0  0  0  0  0
    0.1980    1.2050    2.5190 C   0  0  0  0  0
    0.1780    1.2190    1.1390 C   0  0  0  0  0
   -2.6070   -0.1680   -1.0600 N   0  0  0  0  0
   -0.2650    0.1050   -5.1120 N   0  0  0  0  0
    2.3080    0.3360   -1.0800 C   0  0  0  0  0
    2.9420   -1.0470   -0.9300 C   0  0  0  0  0
   -0.0800    0.0340    4.9420 CL  0  0  0  0  0
   -0.7460   -1.9980    0.5980 H   0  0  0  0  0
   -0.6970   -2.0060    3.0570 H   0  0  0  0  0
    0.4610    2.1000    3.0630 H   0  0  0  0  0
    0.4220    2.1240    0.6030 H   0  0  0  0  0
   -3.4390   -0.2490   -1.5510 H   0  0  0  0  0
   -2.6130   -0.1760   -0.0900 H   0  0  0  0  0
   -1.1070    0.0230   -5.5860 H   0  0  0  0  0
    0.5630    0.1940   -5.6080 H   0  0  0  0  0
    2.1580    0.7760   -0.0940 H   0  0  0  0  0
    2.9660    0.9760   -1.6670 H   0  0  0  0  0
    3.9390   -0.9450   -0.5000 H   0  0  0  0  0
    2.3250   -1.6610   -0.2730 H   0  0  0  0  0
    3.0150   -1.5220   -1.9080 H   0  0  0  0  0
  1  2  1  0  0  0
  1  3  2  0  0  0
  2  6  2  0  0  0
  2 14  1  0  0  0
  3  4  1  0  0  0
  3 13  1  0  0  0
  4  5  2  0  0  0
  4  7  1  0  0  0
  5  6  1  0  0  0
  5 15  1  0  0  0
  7  8  1  0  0  0
  7 12  2  0  0  0
  8  9  2  0  0  0
  8 18  1  0  0  0
  9 10  1  0  0  0
  9 19  1  0  0  0
 10 11  2  0  0  0
 10 17  1  0  0  0
 11 12  1  0  0  0
 11 20  1  0  0  0
 12 21  1  0  0  0
 13 22  1  0  0  0
 13 23  1  0  0  0
 14 24  1  0  0  0
 14 25  1  0  0  0
 15 16  1  0  0  0
 15 26  1  0  0  0
 15 27  1  0  0  0
 16 28  1  0  0  0
 16 29  1  0  0  0
 16 30  1  0  0  0
M  END
$$$$
