CPC
  CCTOOLS-1004241123

 20 20  0  0  1  0  0  0  0  0999 V2000
    1.9000    1.1390   -0.2440 N   0  0  0  0  0
    3.2570    1.0200    0.2700 C   0  0  0  0  0
    1.0280    0.1350    0.3510 C   0  0  0  0  0
    0.9300   -1.2350   -0.2640 C   0  0  0  0  0
   -0.2290   -0.2870   -0.3600 C   0  0  0  0  0
    0.8010   -2.4450    0.5860 C   0  0  0  0  0
    0.9850    0.2830    1.8170 C   0  0  0  0  0
    1.6750   -0.3450    2.6070 O   0  0  0  0  0
    0.0700    1.2160    2.1780 O   0  0  0  0  0
    1.9120    1.0150   -1.2560 H   0  0  0  0  0
    3.9470    1.5930   -0.3550 H   0  0  0  0  0
    3.5710   -0.0280    0.2710 H   0  0  0  0  0
    3.3090    1.4020    1.2930 H   0  0  0  0  0
    1.4900   -1.4400   -1.1680 H   0  0  0  0  0
   -0.4550    0.1540   -1.3250 H   0  0  0  0  0
   -1.1080   -0.5100    0.2330 H   0  0  0  0  0
   -0.2330   -2.5720    0.9200 H   0  0  0  0  0
    1.0960   -3.3390    0.0290 H   0  0  0  0  0
    1.4410   -2.3630    1.4700 H   0  0  0  0  0
    0.0250    1.3280    3.1510 H   0  0  0  0  0
  1  2  1  0  0  0
  1  3  1  0  0  0
  1 10  1  0  0  0
  2 11  1  0  0  0
  2 12  1  0  0  0
  2 13  1  0  0  0
  3  4  1  0  0  0
  3  5  1  0  0  0
  3  7  1  0  0  0
  4  5  1  0  0  0
  4  6  1  0  0  0
  4 14  1  0  0  0
  5 15  1  0  0  0
  5 16  1  0  0  0
  6 17  1  0  0  0
  6 18  1  0  0  0
  6 19  1  0  0  0
  7  8  2  0  0  0
  7  9  1  0  0  0
  9 20  1  0  0  0
M  END
$$$$
