CPJ
  CCTOOLS-0919241039

 54 55  0  0  0  0  0  0  0  0999 V2000
    8.7490   -2.5780   -0.8520 O   0  0  0  0  0
    8.1200   -1.9480    0.1520 C   0  0  0  0  0
    8.0080   -2.4870    1.2280 O   0  0  0  0  0
    7.5520   -0.5680   -0.0620 C   0  0  0  0  0
    7.0490   -0.0670    1.1740 O   0  0  0  0  0
    6.7380    1.3130    0.9750 C   0  0  0  0  0
    8.6570    0.3600   -0.5730 C   0  0  0  0  0
    6.5080   -0.6360   -1.0310 O   0  0  0  0  0
    6.1620    0.7080   -1.3730 C   0  0  0  0  0
    5.6690    1.4340   -0.1170 C   0  0  0  0  0
    4.4330    0.8260    0.3430 O   0  0  0  0  0
    3.2500    1.2910   -0.0990 C   0  0  0  0  0
    3.2160    2.2190   -0.8830 O   0  0  0  0  0
    2.1020    0.7280    0.3280 N   0  0  0  0  0
    0.8140    1.2340   -0.1530 C   0  0  0  0  0
   -0.3200    0.4250    0.4810 C   0  0  0  0  0
   -1.6080    0.9310    0.0000 N   0  0  0  0  0
   -2.7550    0.3680    0.4270 C   0  0  0  0  0
   -2.7210   -0.5600    1.2110 O   0  0  0  0  0
   -3.9390    0.8320   -0.0150 O   0  0  0  0  0
   -5.1750    0.2250    0.4450 C   0  0  0  0  0
   -6.2900    1.2760    0.4560 C   0  0  0  0  0
   -7.5280    0.6400    0.7830 O   0  0  0  0  0
   -5.5740   -0.9090   -0.5050 C   0  0  0  0  0
   -6.8550   -1.4120   -0.1200 O   0  0  0  0  0
   -7.7810   -0.3320   -0.2290 C   0  0  0  0  0
   -7.6390    0.3200   -1.6060 C   0  0  0  0  0
   -9.1830   -0.8630   -0.0710 C   0  0  0  0  0
   -9.6810   -1.7210   -0.9750 O   0  0  0  0  0
   -9.8570   -0.5170    0.8700 O   0  0  0  0  0
    9.1130   -3.4630   -0.7140 H   0  0  0  0  0
    6.3600    1.7400    1.9040 H   0  0  0  0  0
    7.6360    1.8480    0.6660 H   0  0  0  0  0
    9.4600    0.4070    0.1620 H   0  0  0  0  0
    9.0480   -0.0240   -1.5150 H   0  0  0  0  0
    8.2490    1.3580   -0.7290 H   0  0  0  0  0
    5.3720    0.7010   -2.1230 H   0  0  0  0  0
    7.0390    1.2200   -1.7700 H   0  0  0  0  0
    5.4990    2.4860   -0.3460 H   0  0  0  0  0
    2.1290   -0.0130    0.9540 H   0  0  0  0  0
    0.7100    2.2830    0.1230 H   0  0  0  0  0
    0.7680    1.1360   -1.2370 H   0  0  0  0  0
   -0.2160   -0.6240    0.2050 H   0  0  0  0  0
   -0.2730    0.5230    1.5650 H   0  0  0  0  0
   -1.6350    1.6720   -0.6260 H   0  0  0  0  0
   -5.0350   -0.1700    1.4510 H   0  0  0  0  0
   -6.0640    2.0390    1.2010 H   0  0  0  0  0
   -6.3660    1.7380   -0.5280 H   0  0  0  0  0
   -5.6230   -0.5290   -1.5260 H   0  0  0  0  0
   -4.8360   -1.7090   -0.4480 H   0  0  0  0  0
   -6.6260    0.7050   -1.7230 H   0  0  0  0  0
   -7.8390   -0.4200   -2.3810 H   0  0  0  0  0
   -8.3510    1.1400   -1.6940 H   0  0  0  0  0
  -10.5810   -2.0620   -0.8740 H   0  0  0  0  0
  1  2  1  0  0  0
  1 31  1  0  0  0
  2  3  2  0  0  0
  2  4  1  0  0  0
  4  5  1  0  0  0
  4  7  1  0  0  0
  4  8  1  0  0  0
  5  6  1  0  0  0
  6 10  1  0  0  0
  6 32  1  0  0  0
  6 33  1  0  0  0
  7 34  1  0  0  0
  7 35  1  0  0  0
  7 36  1  0  0  0
  8  9  1  0  0  0
  9 10  1  0  0  0
  9 37  1  0  0  0
  9 38  1  0  0  0
 10 11  1  0  0  0
 10 39  1  0  0  0
 11 12  1  0  0  0
 12 13  2  0  0  0
 12 14  1  0  0  0
 14 15  1  0  0  0
 14 40  1  0  0  0
 15 16  1  0  0  0
 15 41  1  0  0  0
 15 42  1  0  0  0
 16 17  1  0  0  0
 16 43  1  0  0  0
 16 44  1  0  0  0
 17 18  1  0  0  0
 17 45  1  0  0  0
 18 19  2  0  0  0
 18 20  1  0  0  0
 20 21  1  0  0  0
 21 22  1  0  0  0
 21 24  1  0  0  0
 21 46  1  0  0  0
 22 23  1  0  0  0
 22 47  1  0  0  0
 22 48  1  0  0  0
 23 26  1  0  0  0
 24 25  1  0  0  0
 24 49  1  0  0  0
 24 50  1  0  0  0
 25 26  1  0  0  0
 26 27  1  0  0  0
 26 28  1  0  0  0
 27 51  1  0  0  0
 27 52  1  0  0  0
 27 53  1  0  0  0
 28 29  1  0  0  0
 28 30  2  0  0  0
 29 54  1  0  0  0
M  END
$$$$
