CPK
  CCTOOLS-0919241039

 58 60  0  0  0  0  0  0  0  0999 V2000
    6.6090   -3.1910   -1.5920 O   0  0  0  0  0
    5.9550   -2.8320   -0.4760 C   0  0  0  0  0
    5.3150   -3.6510    0.1400 O   0  0  0  0  0
    6.0200   -1.4060    0.0090 C   0  0  0  0  0
    5.3540   -1.3050    1.2660 O   0  0  0  0  0
    5.6390   -0.0060    1.7900 C   0  0  0  0  0
    7.4830   -0.9940    0.1760 C   0  0  0  0  0
    5.3960   -0.5560   -0.9510 O   0  0  0  0  0
    5.6830    0.7910   -0.5710 C   0  0  0  0  0
    5.1010    1.0530    0.8220 C   0  0  0  0  0
    3.6520    0.9720    0.7680 O   0  0  0  0  0
    2.9250    2.0770    0.5180 C   0  0  0  0  0
    3.4810    3.1430    0.3390 O   0  0  0  0  0
    1.5800    2.0020    0.4680 N   0  0  0  0  0
    0.7740    3.2000    0.1960 C   0  0  0  0  0
   -0.1300    2.9190   -1.0110 C   0  0  0  0  0
    0.8950    0.7190    0.6770 C   0  0  0  0  0
   -0.0090    0.4390   -0.5250 C   0  0  0  0  0
   -0.8160    1.6370   -0.7960 N   0  0  0  0  0
   -2.1600    1.5620   -0.8470 C   0  0  0  0  0
   -2.8170    2.5590   -1.0720 O   0  0  0  0  0
   -2.7760    0.3810   -0.6480 O   0  0  0  0  0
   -4.2250    0.3000   -0.7030 C   0  0  0  0  0
   -4.6430   -1.0910   -1.1900 C   0  0  0  0  0
   -6.0660   -1.2050   -1.1150 O   0  0  0  0  0
   -4.8050    0.5290    0.6970 C   0  0  0  0  0
   -6.2180    0.3170    0.6580 O   0  0  0  0  0
   -6.4300   -1.0340    0.2540 C   0  0  0  0  0
   -5.5790   -1.9620    1.1240 C   0  0  0  0  0
   -7.8860   -1.3820    0.4300 C   0  0  0  0  0
   -8.5630   -1.6510   -0.5330 O   0  0  0  0  0
   -8.4290   -1.3930    1.6570 O   0  0  0  0  0
    6.5680   -4.1060   -1.9030 H   0  0  0  0  0
    5.1570    0.1090    2.7610 H   0  0  0  0  0
    6.7160    0.1140    1.9000 H   0  0  0  0  0
    7.9650   -1.6470    0.9030 H   0  0  0  0  0
    7.9960   -1.0770   -0.7830 H   0  0  0  0  0
    7.5320    0.0380    0.5260 H   0  0  0  0  0
    5.2320    1.4770   -1.2890 H   0  0  0  0  0
    6.7620    0.9420   -0.5490 H   0  0  0  0  0
    5.4010    2.0450    1.1630 H   0  0  0  0  0
    0.1600    3.4330    1.0660 H   0  0  0  0  0
    1.4310    4.0410   -0.0260 H   0  0  0  0  0
   -0.8670    3.7160   -1.1100 H   0  0  0  0  0
    0.4750    2.8630   -1.9160 H   0  0  0  0  0
    1.6310   -0.0790    0.7740 H   0  0  0  0  0
    0.2910    0.7760    1.5830 H   0  0  0  0  0
   -0.6660   -0.4010   -0.3020 H   0  0  0  0  0
    0.6050    0.2070   -1.3950 H   0  0  0  0  0
   -4.6080    1.0570   -1.3870 H   0  0  0  0  0
   -4.3210   -1.2280   -2.2220 H   0  0  0  0  0
   -4.1830   -1.8520   -0.5590 H   0  0  0  0  0
   -4.3510   -0.1710    1.3990 H   0  0  0  0  0
   -4.5990    1.5510    1.0140 H   0  0  0  0  0
   -4.5250   -1.7120    0.9980 H   0  0  0  0  0
   -5.8590   -1.8390    2.1690 H   0  0  0  0  0
   -5.7450   -2.9960    0.8220 H   0  0  0  0  0
   -9.3630   -1.6160    1.7710 H   0  0  0  0  0
  1  2  1  0  0  0
  1 33  1  0  0  0
  2  3  2  0  0  0
  2  4  1  0  0  0
  4  5  1  0  0  0
  4  7  1  0  0  0
  4  8  1  0  0  0
  5  6  1  0  0  0
  6 10  1  0  0  0
  6 34  1  0  0  0
  6 35  1  0  0  0
  7 36  1  0  0  0
  7 37  1  0  0  0
  7 38  1  0  0  0
  8  9  1  0  0  0
  9 10  1  0  0  0
  9 39  1  0  0  0
  9 40  1  0  0  0
 10 11  1  0  0  0
 10 41  1  0  0  0
 11 12  1  0  0  0
 12 13  2  0  0  0
 12 14  1  0  0  0
 14 15  1  0  0  0
 14 17  1  0  0  0
 15 16  1  0  0  0
 15 42  1  0  0  0
 15 43  1  0  0  0
 16 19  1  0  0  0
 16 44  1  0  0  0
 16 45  1  0  0  0
 17 18  1  0  0  0
 17 46  1  0  0  0
 17 47  1  0  0  0
 18 19  1  0  0  0
 18 48  1  0  0  0
 18 49  1  0  0  0
 19 20  1  0  0  0
 20 21  2  0  0  0
 20 22  1  0  0  0
 22 23  1  0  0  0
 23 24  1  0  0  0
 23 26  1  0  0  0
 23 50  1  0  0  0
 24 25  1  0  0  0
 24 51  1  0  0  0
 24 52  1  0  0  0
 25 28  1  0  0  0
 26 27  1  0  0  0
 26 53  1  0  0  0
 26 54  1  0  0  0
 27 28  1  0  0  0
 28 29  1  0  0  0
 28 30  1  0  0  0
 29 55  1  0  0  0
 29 56  1  0  0  0
 29 57  1  0  0  0
 30 31  2  0  0  0
 30 32  1  0  0  0
 32 58  1  0  0  0
M  END
$$$$
