CPS
  CCTOOLS-0919241039

100103  0  0  1  0  0  0  0  0999 V2000
   -9.0920    1.9030    0.9190 C   0  0  0  0  0
   -8.3300    0.6330    1.3010 C   0  0  0  0  0
   -6.2590    1.6480    0.3300 C   0  0  0  0  0
   -5.0240    1.4310   -0.5600 C   0  0  0  0  0
   -4.3040    0.2020   -0.0400 C   0  0  0  0  0
   -5.2480   -1.0080   -0.2390 C   0  0  0  0  0
   -4.3020   -2.1840    0.0280 C   0  0  0  0  0
   -2.9980   -1.7550   -0.6980 C   0  0  0  0  0
   -3.0390   -0.2120   -0.7840 C   0  0  0  0  0
   -3.9960    0.3740    1.4480 C   0  0  0  0  0
   -7.7870    0.7740    2.7250 C   0  0  0  0  0
   -9.6410    1.7620   -0.5020 C   0  0  0  0  0
  -10.5830    0.5580   -0.5690 C   0  0  0  0  0
   -9.8170   -0.7110   -0.1900 C   0  0  0  0  0
   -9.2720   -0.5700    1.2320 C   0  0  0  0  0
   -8.5120   -1.8410    1.6160 C   0  0  0  0  0
   -7.3390   -2.0470    0.6550 C   0  0  0  0  0
   -6.3970   -0.8450    0.7370 C   0  0  0  0  0
   -7.1660    0.4220    0.3320 C   0  0  0  0  0
   -1.8050    0.3860   -0.1060 C   0  0  0  0  0
   -1.8380    1.9100   -0.2390 C   0  0  0  0  0
   -0.5410   -0.1560   -0.7770 C   0  0  0  0  0
    0.6920    0.3430   -0.0210 C   0  0  0  0  0
    1.9370   -0.1910   -0.6810 C   0  0  0  0  0
    4.3600   -0.3990   -0.8260 C   0  0  0  0  0
    5.5930    0.1000   -0.0700 C   0  0  0  0  0
    6.8570   -0.4420   -0.7410 C   0  0  0  0  0
    8.0670    1.5060   -0.0360 C   0  0  0  0  0
    7.9850   -0.4310    1.3770 C   0  0  0  0  0
    9.2540   -0.4840   -0.6590 C   0  0  0  0  0
   10.4870    0.0160    0.0970 C   0  0  0  0  0
   11.7510   -0.5260   -0.5730 C   0  0  0  0  0
    3.1500    0.1200   -0.1840 N   0  0  0  0  0
    8.0400    0.0370   -0.0150 N   0  3  0  0  0
    1.8470   -0.9010   -1.6600 O   0  0  0  0  0
  -11.0960    0.4270   -1.8970 O   0  0  0  0  0
   -7.8340   -2.1740   -0.6790 O   0  0  0  0  0
   -5.4300    1.2200   -1.9140 O   0  0  0  0  0
   13.1430   -0.4060    1.6980 O   0  5  0  0  0
   14.4040   -0.4580   -0.3260 O   0  0  0  0  0
   13.2240    1.5200    0.2930 O   0  0  0  0  0
   13.2120    0.0650    0.3230 S   0  0  0  0  0
   -9.9180    2.0530    1.6140 H   0  0  0  0  0
   -8.4190    2.7590    0.9650 H   0  0  0  0  0
   -5.9330    1.8520    1.3490 H   0  0  0  0  0
   -6.8200    2.5050   -0.0420 H   0  0  0  0  0
   -4.3670    2.2990   -0.5000 H   0  0  0  0  0
   -5.6140   -1.0410   -1.2650 H   0  0  0  0  0
   -4.1280   -2.3040    1.0970 H   0  0  0  0  0
   -4.6990   -3.1030   -0.4040 H   0  0  0  0  0
   -2.1280   -2.0760   -0.1250 H   0  0  0  0  0
   -2.9670   -2.1850   -1.6990 H   0  0  0  0  0
   -3.0910    0.1070   -1.8250 H   0  0  0  0  0
   -4.9240    0.5450    1.9940 H   0  0  0  0  0
   -3.5120   -0.5270    1.8260 H   0  0  0  0  0
   -3.3310    1.2280    1.5860 H   0  0  0  0  0
   -8.6170    0.9220    3.4160 H   0  0  0  0  0
   -7.2430   -0.1300    2.9980 H   0  0  0  0  0
   -7.1150    1.6310    2.7740 H   0  0  0  0  0
  -10.1870    2.6660   -0.7720 H   0  0  0  0  0
   -8.8150    1.6150   -1.1980 H   0  0  0  0  0
  -11.4100    0.7050    0.1260 H   0  0  0  0  0
  -10.4880   -1.5690   -0.2400 H   0  0  0  0  0
   -8.9890   -0.8560   -0.8840 H   0  0  0  0  0
  -10.1000   -0.4220    1.9250 H   0  0  0  0  0
   -8.1340   -1.7440    2.6340 H   0  0  0  0  0
   -9.1840   -2.6970    1.5590 H   0  0  0  0  0
   -6.7990   -2.9530    0.9310 H   0  0  0  0  0
   -6.0080   -0.7520    1.7510 H   0  0  0  0  0
   -7.5650    0.2760   -0.6720 H   0  0  0  0  0
   -1.8020    0.1130    0.9490 H   0  0  0  0  0
   -2.7020    2.3020    0.2980 H   0  0  0  0  0
   -0.9260    2.3320    0.1840 H   0  0  0  0  0
   -1.9100    2.1810   -1.2920 H   0  0  0  0  0
   -0.5600   -1.2460   -0.7610 H   0  0  0  0  0
   -0.5000    0.1910   -1.8090 H   0  0  0  0  0
    0.7110    1.4330   -0.0370 H   0  0  0  0  0
    0.6510   -0.0050    1.0120 H   0  0  0  0  0
    4.4020   -0.0520   -1.8580 H   0  0  0  0  0
    4.3410   -1.4890   -0.8100 H   0  0  0  0  0
    5.6120    1.1900   -0.0860 H   0  0  0  0  0
    6.8380   -1.5320   -0.7250 H   0  0  0  0  0
    7.1660    1.8920    0.4420 H   0  0  0  0  0
    8.9450    1.8620    0.5020 H   0  0  0  0  0
    8.1080    1.8540   -1.0690 H   0  0  0  0  0
    7.9650   -1.5210    1.3920 H   0  0  0  0  0
    8.8630   -0.0750    1.9150 H   0  0  0  0  0
    7.0840   -0.0450    1.8540 H   0  0  0  0  0
    9.2950   -0.1360   -1.6910 H   0  0  0  0  0
    9.2350   -1.5730   -0.6430 H   0  0  0  0  0
   10.5060    1.1060    0.0820 H   0  0  0  0  0
   10.4460   -0.3320    1.1300 H   0  0  0  0  0
   11.7310   -1.6160   -0.5570 H   0  0  0  0  0
   11.7920   -0.1790   -1.6050 H   0  0  0  0  0
    3.2220    0.6880    0.5990 H   0  0  0  0  0
  -11.5940    1.1970   -2.2040 H   0  0  0  0  0
   -8.4400   -2.9170   -0.8050 H   0  0  0  0  0
   -5.9260    1.9570   -2.2950 H   0  0  0  0  0
    6.8980   -0.0950   -1.7730 H   0  0  0  0  0
    5.5520   -0.2470    0.9620 H   0  0  0  0  0
  1  2  1  0  0  0
  1 12  1  0  0  0
  1 43  1  0  0  0
  1 44  1  0  0  0
  2 11  1  0  0  0
  2 15  1  0  0  0
  2 19  1  0  0  0
  3  4  1  0  0  0
  3 19  1  0  0  0
  3 45  1  0  0  0
  3 46  1  0  0  0
  4  5  1  0  0  0
  4 38  1  0  0  0
  4 47  1  0  0  0
  5  6  1  0  0  0
  5  9  1  0  0  0
  5 10  1  0  0  0
  6  7  1  0  0  0
  6 18  1  0  0  0
  6 48  1  0  0  0
  7  8  1  0  0  0
  7 49  1  0  0  0
  7 50  1  0  0  0
  8  9  1  0  0  0
  8 51  1  0  0  0
  8 52  1  0  0  0
  9 20  1  0  0  0
  9 53  1  0  0  0
 10 54  1  0  0  0
 10 55  1  0  0  0
 10 56  1  0  0  0
 11 57  1  0  0  0
 11 58  1  0  0  0
 11 59  1  0  0  0
 12 13  1  0  0  0
 12 60  1  0  0  0
 12 61  1  0  0  0
 13 14  1  0  0  0
 13 36  1  0  0  0
 13 62  1  0  0  0
 14 15  1  0  0  0
 14 63  1  0  0  0
 14 64  1  0  0  0
 15 16  1  0  0  0
 15 65  1  0  0  0
 16 17  1  0  0  0
 16 66  1  0  0  0
 16 67  1  0  0  0
 17 18  1  0  0  0
 17 37  1  0  0  0
 17 68  1  0  0  0
 18 19  1  0  0  0
 18 69  1  0  0  0
 19 70  1  0  0  0
 20 21  1  0  0  0
 20 22  1  0  0  0
 20 71  1  0  0  0
 21 72  1  0  0  0
 21 73  1  0  0  0
 21 74  1  0  0  0
 22 23  1  0  0  0
 22 75  1  0  0  0
 22 76  1  0  0  0
 23 24  1  0  0  0
 23 77  1  0  0  0
 23 78  1  0  0  0
 24 33  1  0  0  0
 24 35  2  0  0  0
 25 26  1  0  0  0
 25 33  1  0  0  0
 25 79  1  0  0  0
 25 80  1  0  0  0
 26 27  1  0  0  0
 26 81  1  0  0  0
 26100  1  0  0  0
 27 34  1  0  0  0
 27 82  1  0  0  0
 27 99  1  0  0  0
 28 34  1  0  0  0
 28 83  1  0  0  0
 28 84  1  0  0  0
 28 85  1  0  0  0
 29 34  1  0  0  0
 29 86  1  0  0  0
 29 87  1  0  0  0
 29 88  1  0  0  0
 30 31  1  0  0  0
 30 34  1  0  0  0
 30 89  1  0  0  0
 30 90  1  0  0  0
 31 32  1  0  0  0
 31 91  1  0  0  0
 31 92  1  0  0  0
 32 42  1  0  0  0
 32 93  1  0  0  0
 32 94  1  0  0  0
 33 95  1  0  0  0
 36 96  1  0  0  0
 37 97  1  0  0  0
 38 98  1  0  0  0
 39 42  1  0  0  0
 40 42  2  0  0  0
 41 42  2  0  0  0
M  CHG  1  34   1
M  CHG  1  39  -1
M  END
$$$$
