CSD
  CCTOOLS-1004241123

 16 15  0  0  1  0  0  0  0  0999 V2000
    0.6330    1.6360    0.2680 N   0  0  0  0  0
    0.8720    0.2030    0.4820 C   0  0  0  0  0
   -0.1790   -0.6090   -0.2790 C   0  0  0  0  0
   -1.8330   -0.1750    0.3270 S   0  0  0  0  0
    2.2460   -0.1580   -0.0210 C   0  0  0  0  0
    2.8070    0.5610   -0.8140 O   0  0  0  0  0
    2.8470   -1.2780    0.4110 O   0  0  0  0  0
   -2.1650    1.1380   -0.1030 O   0  0  0  0  0
   -2.7470   -1.0530   -0.5160 O   0  0  0  0  0
    1.2730    2.1950    0.8110 H   0  0  0  0  0
    0.6900    1.8700   -0.7120 H   0  0  0  0  0
    0.8040   -0.0220    1.5460 H   0  0  0  0  0
   -0.1110   -0.3840   -1.3430 H   0  0  0  0  0
   -0.0010   -1.6730   -0.1200 H   0  0  0  0  0
    3.7280   -1.4670    0.0600 H   0  0  0  0  0
   -3.6870   -0.9460   -0.3180 H   0  0  0  0  0
  1  2  1  0  0  0
  1 10  1  0  0  0
  1 11  1  0  0  0
  2  3  1  0  0  0
  2  5  1  0  0  0
  2 12  1  0  0  0
  3  4  1  0  0  0
  3 13  1  0  0  0
  3 14  1  0  0  0
  4  8  2  0  0  0
  4  9  1  0  0  0
  5  6  2  0  0  0
  5  7  1  0  0  0
  7 15  1  0  0  0
  9 16  1  0  0  0
M  END
$$$$
