CSS
  CCTOOLS-1004241124

 15 14  0  0  1  0  0  0  0  0999 V2000
   -1.8180   -0.4750    1.9010 N   0  0  0  0  0
   -0.7390   -0.3900    0.9080 C   0  0  0  0  0
   -0.9980    0.7940   -0.0250 C   0  0  0  0  0
    0.3500    0.9200   -1.2310 S   0  0  0  0  0
   -0.1300   -0.6420   -2.4680 S   0  0  0  0  0
    0.5780   -0.1960    1.6120 C   0  0  0  0  0
    0.6170    0.3860    2.6700 O   0  0  0  0  0
    1.7080   -0.6690    1.0640 O   0  0  0  0  0
   -1.8710    0.4270    2.3500 H   0  0  0  0  0
   -2.6780   -0.5940    1.3870 H   0  0  0  0  0
   -0.7080   -1.3110    0.3250 H   0  0  0  0  0
   -1.9420    0.6430   -0.5500 H   0  0  0  0  0
   -1.0500    1.7120    0.5590 H   0  0  0  0  0
    0.8690   -0.5480   -3.3620 H   0  0  0  0  0
    2.5540   -0.5450    1.5160 H   0  0  0  0  0
  1  2  1  0  0  0
  1  9  1  0  0  0
  1 10  1  0  0  0
  2  3  1  0  0  0
  2  6  1  0  0  0
  2 11  1  0  0  0
  3  4  1  0  0  0
  3 12  1  0  0  0
  3 13  1  0  0  0
  4  5  1  0  0  0
  5 14  1  0  0  0
  6  7  2  0  0  0
  6  8  1  0  0  0
  8 15  1  0  0  0
M  END
$$$$
