CSX
  CCTOOLS-1004241124

 15 14  0  0  1  0  0  0  0  0999 V2000
    1.0940   -2.0770    1.5880 N   0  0  0  0  0
    1.3300   -0.6320    1.6190 C   0  0  0  0  0
    1.0680   -0.0260    0.2430 C   0  0  0  0  0
    1.3440    1.7760    0.2350 S   0  0  0  0  0
    0.3840   -0.0690    2.6610 C   0  0  0  0  0
   -0.7380   -0.4880    2.9100 O   0  0  0  0  0
    0.9370    1.0040    3.2840 O   0  0  0  0  0
    2.8220    2.0000    0.2280 O   0  0  0  0  0
    0.3300   -2.4120    1.0460 H   0  0  0  0  0
    1.5690   -2.6400    2.2570 H   0  0  0  0  0
    2.3640   -0.4690    1.9440 H   0  0  0  0  0
    1.7550   -0.4390   -0.5040 H   0  0  0  0  0
    0.0410   -0.2030   -0.0970 H   0  0  0  0  0
    1.0510    2.0290   -1.0510 H   0  0  0  0  0
    0.3300    1.3930    3.9490 H   0  0  0  0  0
  1  2  1  0  0  0
  1  9  1  0  0  0
  1 10  1  0  0  0
  2  3  1  0  0  0
  2  5  1  0  0  0
  2 11  1  0  0  0
  3  4  1  0  0  0
  3 12  1  0  0  0
  3 13  1  0  0  0
  4  8  2  0  0  0
  4 14  1  0  0  0
  5  6  2  0  0  0
  5  7  1  0  0  0
  7 15  1  0  0  0
M  END
$$$$
