CTN
  CCTOOLS-0919241039

 30 31  0  0  1  0  0  0  0  0999 V2000
   -3.3690    2.6030   -0.7380 O   0  0  0  0  0
   -3.2510    1.5610    0.2320 C   0  0  0  0  0
   -2.4600    0.3950   -0.3650 C   0  0  0  0  0
   -1.0930    0.7890   -0.6120 O   0  0  0  0  0
   -0.3480   -0.4460   -0.6870 C   0  0  0  0  0
    1.0750   -0.1990   -0.4460 N   0  0  0  0  0
    2.0030   -0.6590   -1.3330 C   0  0  0  0  0
    3.3150   -0.4190   -1.1020 C   0  0  0  0  0
    3.6860    0.2920    0.0580 C   0  0  0  0  0
    2.7480    0.7200    0.8930 N   0  0  0  0  0
    1.4610    0.4810    0.6490 C   0  0  0  0  0
    0.6170    0.8860    1.4320 O   0  0  0  0  0
    5.0130    0.5450    0.3200 N   0  0  0  0  0
   -0.9370   -1.3340    0.4320 C   0  0  0  0  0
   -1.0020   -2.6990    0.0140 O   0  0  0  0  0
   -2.3590   -0.7650    0.6500 C   0  0  0  0  0
   -3.3450   -1.7610    0.3720 O   0  0  0  0  0
   -3.8730    3.3160   -0.3230 H   0  0  0  0  0
   -4.2450    1.2160    0.5190 H   0  0  0  0  0
   -2.7300    1.9400    1.1120 H   0  0  0  0  0
   -2.9290    0.0520   -1.2870 H   0  0  0  0  0
   -0.4920   -0.9170   -1.6600 H   0  0  0  0  0
    1.6940   -1.2050   -2.2120 H   0  0  0  0  0
    4.0670   -0.7740   -1.7910 H   0  0  0  0  0
    5.2650    1.0380    1.1160 H   0  0  0  0  0
    5.6970    0.2270   -0.2910 H   0  0  0  0  0
   -0.3440   -1.2410    1.3420 H   0  0  0  0  0
   -1.4320   -3.1890    0.7280 H   0  0  0  0  0
   -2.4700   -0.3930    1.6690 H   0  0  0  0  0
   -4.2080   -1.3340    0.4650 H   0  0  0  0  0
  1  2  1  0  0  0
  1 18  1  0  0  0
  2  3  1  0  0  0
  2 19  1  0  0  0
  2 20  1  0  0  0
  3  4  1  0  0  0
  3 16  1  0  0  0
  3 21  1  0  0  0
  4  5  1  0  0  0
  5  6  1  0  0  0
  5 14  1  0  0  0
  5 22  1  0  0  0
  6  7  1  0  0  0
  6 11  1  0  0  0
  7  8  2  0  0  0
  7 23  1  0  0  0
  8  9  1  0  0  0
  8 24  1  0  0  0
  9 10  2  0  0  0
  9 13  1  0  0  0
 10 11  1  0  0  0
 11 12  2  0  0  0
 13 25  1  0  0  0
 13 26  1  0  0  0
 14 15  1  0  0  0
 14 16  1  0  0  0
 14 27  1  0  0  0
 15 28  1  0  0  0
 16 17  1  0  0  0
 16 29  1  0  0  0
 17 30  1  0  0  0
M  END
$$$$
