CTO
  CCTOOLS-0919241039

 84 86  0  0  1  0  0  0  0  0999 V2000
    6.1830    0.3430   -0.3660 C   0  0  0  0  0
    5.3060    1.1450    0.5990 C   0  0  0  0  0
    4.1530    0.2600    1.0840 C   0  0  0  0  0
    3.3690   -0.2490   -0.1290 C   0  0  0  0  0
    4.3210   -0.9980   -1.0660 C   0  0  0  0  0
    3.5570   -1.4570   -2.3090 C   0  0  0  0  0
    6.8350    2.7090    1.6710 C   0  0  0  0  0
    7.6600    3.1540    2.8510 C   0  0  0  0  0
    6.1080    1.5770    1.7460 N   0  0  0  0  0
    7.2280    1.1790   -0.8670 O   0  0  0  0  0
    3.2890    1.0210    1.9290 O   0  0  0  0  0
    2.3350   -1.1340    0.3070 O   0  0  0  0  0
    5.3860   -0.1270   -1.4550 O   0  0  0  0  0
    4.4220   -2.2370   -3.1380 O   0  0  0  0  0
    6.8250    3.3700    0.6540 O   0  0  0  0  0
    1.0760   -0.9180   -0.3320 C   0  0  0  0  0
    0.1190   -2.0580    0.0250 C   0  0  0  0  0
   -1.2460   -1.7880   -0.6150 C   0  0  0  0  0
   -1.7610   -0.4260   -0.1390 C   0  0  0  0  0
   -0.7310    0.6510   -0.4900 C   0  0  0  0  0
   -1.2100    2.0060    0.0360 C   0  0  0  0  0
    1.5490   -4.0170    0.2540 C   0  0  0  0  0
    2.1010   -5.3200   -0.2650 C   0  0  0  0  0
    0.6550   -3.3240   -0.4800 N   0  0  0  0  0
   -2.1670   -2.8100   -0.2280 O   0  0  0  0  0
   -3.0000   -0.1300   -0.7850 O   0  0  0  0  0
    0.5230    0.3230    0.1110 O   0  0  0  0  0
   -0.2950    3.0260   -0.3710 O   0  0  0  0  0
    1.9080   -3.5930    1.3320 O   0  0  0  0  0
   -3.9870    0.4340    0.0800 C   0  0  0  0  0
   -5.1590    0.9580   -0.7560 C   0  0  0  0  0
   -6.2390    1.5070    0.1820 C   0  0  0  0  0
   -6.6660    0.4020    1.1530 C   0  0  0  0  0
   -5.4360   -0.1000    1.9150 C   0  0  0  0  0
   -5.8440   -1.2450    2.8440 C   0  0  0  0  0
   -4.1440    1.7190   -2.8360 C   0  0  0  0  0
   -3.6610    2.8180   -3.7480 C   0  0  0  0  0
   -4.6890    2.0260   -1.6420 N   0  0  0  0  0
   -7.3670    1.9310   -0.5860 O   0  0  0  0  0
   -7.6210    0.9240    2.0800 O   0  0  0  0  0
   -4.4590   -0.5670    0.9830 O   0  0  0  0  0
   -4.7220   -1.6350    3.6390 O   0  0  0  0  0
   -4.0420    0.5600   -3.1760 O   0  0  0  0  0
    6.6180   -0.5080    0.1600 H   0  0  0  0  0
    4.9040    2.0180    0.0850 H   0  0  0  0  0
    4.5540   -0.5870    1.6410 H   0  0  0  0  0
    2.9270    0.5950   -0.6580 H   0  0  0  0  0
    4.7320   -1.8650   -0.5490 H   0  0  0  0  0
    2.7010   -2.0610   -2.0070 H   0  0  0  0  0
    3.2100   -0.5860   -2.8650 H   0  0  0  0  0
    7.5430    2.4400    3.6660 H   0  0  0  0  0
    8.7090    3.2070    2.5620 H   0  0  0  0  0
    7.3240    4.1380    3.1800 H   0  0  0  0  0
    6.1150    1.0480    2.5590 H   0  0  0  0  0
    7.8240    0.7350   -1.4860 H   0  0  0  0  0
    3.7230    1.3800    2.7150 H   0  0  0  0  0
    4.0030   -2.5630   -3.9460 H   0  0  0  0  0
    1.2170   -0.8870   -1.4130 H   0  0  0  0  0
    0.0090   -2.1150    1.1080 H   0  0  0  0  0
   -1.1450   -1.7800   -1.7000 H   0  0  0  0  0
   -1.9090   -0.4500    0.9410 H   0  0  0  0  0
   -0.6130    0.7030   -1.5720 H   0  0  0  0  0
   -2.1990    2.2230   -0.3670 H   0  0  0  0  0
   -1.2600    1.9760    1.1250 H   0  0  0  0  0
    3.1840   -5.2430   -0.3600 H   0  0  0  0  0
    1.8530   -6.1220    0.4290 H   0  0  0  0  0
    1.6650   -5.5360   -1.2410 H   0  0  0  0  0
    0.3680   -3.6630   -1.3420 H   0  0  0  0  0
   -1.8990   -3.7010   -0.4930 H   0  0  0  0  0
   -0.5370    3.9130   -0.0720 H   0  0  0  0  0
   -3.5480    1.2560    0.6450 H   0  0  0  0  0
   -5.5730    0.1450   -1.3520 H   0  0  0  0  0
   -5.8400    2.3520    0.7430 H   0  0  0  0  0
   -7.1100   -0.4220    0.5960 H   0  0  0  0  0
   -5.0160    0.7150    2.5040 H   0  0  0  0  0
   -6.6530   -0.9140    3.4950 H   0  0  0  0  0
   -6.1810   -2.0930    2.2490 H   0  0  0  0  0
   -4.2610    3.7140   -3.5860 H   0  0  0  0  0
   -2.6150    3.0360   -3.5310 H   0  0  0  0  0
   -3.7580    2.4980   -4.7850 H   0  0  0  0  0
   -4.7710    2.9530   -1.3700 H   0  0  0  0  0
   -8.0940    2.2840   -0.0540 H   0  0  0  0  0
   -7.9350    0.2770    2.7260 H   0  0  0  0  0
   -4.9090   -2.3590    4.2530 H   0  0  0  0  0
  1 10  1  0  0  0
  1 44  1  0  0  0
  2  1  1  0  0  0
  2  9  1  0  0  0
  2 45  1  0  0  0
  3  2  1  0  0  0
  3 46  1  0  0  0
  4  5  1  0  0  0
  4  3  1  0  0  0
  4 47  1  0  0  0
  5 13  1  0  0  0
  5 48  1  0  0  0
  6  5  1  0  0  0
  6 49  1  0  0  0
  6 50  1  0  0  0
  7  8  1  0  0  0
  8 51  1  0  0  0
  8 52  1  0  0  0
  8 53  1  0  0  0
  9  7  1  0  0  0
  9 54  1  0  0  0
 10 55  1  0  0  0
 11  3  1  0  0  0
 11 56  1  0  0  0
 12  4  1  0  0  0
 13  1  1  0  0  0
 14  6  1  0  0  0
 14 57  1  0  0  0
 15  7  2  0  0  0
 16 12  1  0  0  0
 16 58  1  0  0  0
 17 16  1  0  0  0
 17 59  1  0  0  0
 18 17  1  0  0  0
 18 60  1  0  0  0
 19 18  1  0  0  0
 19 20  1  0  0  0
 19 61  1  0  0  0
 20 27  1  0  0  0
 20 62  1  0  0  0
 21 20  1  0  0  0
 21 28  1  0  0  0
 21 63  1  0  0  0
 21 64  1  0  0  0
 22 29  2  0  0  0
 23 22  1  0  0  0
 23 67  1  0  0  0
 23 65  1  0  0  0
 23 66  1  0  0  0
 24 17  1  0  0  0
 24 22  1  0  0  0
 24 68  1  0  0  0
 25 18  1  0  0  0
 25 69  1  0  0  0
 26 19  1  0  0  0
 27 16  1  0  0  0
 28 70  1  0  0  0
 30 41  1  0  0  0
 30 26  1  0  0  0
 30 71  1  0  0  0
 31 30  1  0  0  0
 31 72  1  0  0  0
 32 33  1  0  0  0
 32 31  1  0  0  0
 32 73  1  0  0  0
 33 34  1  0  0  0
 33 74  1  0  0  0
 34 35  1  0  0  0
 34 41  1  0  0  0
 34 75  1  0  0  0
 35 76  1  0  0  0
 35 77  1  0  0  0
 36 38  1  0  0  0
 37 36  1  0  0  0
 37 79  1  0  0  0
 37 80  1  0  0  0
 37 78  1  0  0  0
 38 31  1  0  0  0
 38 81  1  0  0  0
 39 32  1  0  0  0
 39 82  1  0  0  0
 40 33  1  0  0  0
 40 83  1  0  0  0
 42 35  1  0  0  0
 42 84  1  0  0  0
 43 36  2  0  0  0
M  END
$$$$
