CUR
  CCTOOLS-0919241040

 47 48  0  0  0  0  0  0  0  0999 V2000
   -0.0620    0.5810   -0.4640 O   0  0  0  0  0
   -0.5300   -0.6830   -0.3360 C   0  0  0  0  0
   -1.9190   -0.9110   -0.1800 C   0  0  0  0  0
   -2.7780    0.1330   -0.1580 C   0  0  0  0  0
   -4.2190   -0.1040    0.0040 C   0  0  0  0  0
   -4.7040   -1.4100    0.1420 C   0  0  0  0  0
   -6.0550   -1.6290    0.2950 C   0  0  0  0  0
   -6.9390   -0.5580    0.3120 C   0  0  0  0  0
   -8.2700   -0.7810    0.4620 O   0  0  0  0  0
   -6.4630    0.7460    0.1750 C   0  0  0  0  0
   -7.3320    1.7920    0.1920 O   0  0  0  0  0
   -6.7760    3.1000    0.0470 C   0  0  0  0  0
   -5.1100    0.9750    0.0270 C   0  0  0  0  0
    0.3450   -1.7470   -0.3590 C   0  0  0  0  0
    1.7290   -1.5240   -0.2100 C   0  0  0  0  0
    2.1410   -0.4100    0.0730 O   0  0  0  0  0
    2.6730   -2.6300   -0.3940 C   0  0  0  0  0
    4.0010   -2.3940   -0.3750 C   0  0  0  0  0
    4.5020   -1.0120   -0.4100 C   0  0  0  0  0
    5.5500   -0.6240    0.4340 C   0  0  0  0  0
    6.0170    0.6750    0.3960 C   0  0  0  0  0
    7.0340    1.0560    1.2130 O   0  0  0  0  0
    7.5730    0.0600    2.0860 C   0  0  0  0  0
    5.4450    1.5970   -0.4810 C   0  0  0  0  0
    5.9030    2.8750   -0.5130 O   0  0  0  0  0
    4.4060    1.2130   -1.3180 C   0  0  0  0  0
    3.9380   -0.0830   -1.2900 C   0  0  0  0  0
    0.8850    0.6330   -0.6530 H   0  0  0  0  0
   -2.2920   -1.9190   -0.0780 H   0  0  0  0  0
   -2.4050    1.1410   -0.2600 H   0  0  0  0  0
   -4.0190   -2.2450    0.1290 H   0  0  0  0  0
   -6.4290   -2.6370    0.4010 H   0  0  0  0  0
   -8.5670   -0.7850    1.3830 H   0  0  0  0  0
   -6.0740    3.2890    0.8590 H   0  0  0  0  0
   -6.2540    3.1690   -0.9080 H   0  0  0  0  0
   -7.5760    3.8400    0.0780 H   0  0  0  0  0
   -4.7400    1.9850   -0.0750 H   0  0  0  0  0
   -0.0290   -2.7510   -0.4900 H   0  0  0  0  0
    2.3050   -3.6340   -0.5460 H   0  0  0  0  0
    4.6960   -3.2200   -0.3330 H   0  0  0  0  0
    5.9910   -1.3380    1.1130 H   0  0  0  0  0
    6.7880   -0.3070    2.7470 H   0  0  0  0  0
    7.9660   -0.7670    1.4940 H   0  0  0  0  0
    8.3760    0.4950    2.6810 H   0  0  0  0  0
    5.4500    3.4700    0.1010 H   0  0  0  0  0
    3.9670    1.9300   -1.9950 H   0  0  0  0  0
    3.1290   -0.3790   -1.9430 H   0  0  0  0  0
  1  2  1  0  0  0
  1 28  1  0  0  0
  2  3  1  0  0  0
  3  4  2  0  0  0
  3 29  1  0  0  0
  4  5  1  0  0  0
  4 30  1  0  0  0
  5 13  2  0  0  0
  5  6  1  0  0  0
  6  7  2  0  0  0
  6 31  1  0  0  0
  7  8  1  0  0  0
  7 32  1  0  0  0
  8  9  1  0  0  0
  9 33  1  0  0  0
 10 11  1  0  0  0
 10  8  2  0  0  0
 11 12  1  0  0  0
 12 34  1  0  0  0
 12 35  1  0  0  0
 12 36  1  0  0  0
 13 10  1  0  0  0
 13 37  1  0  0  0
 14  2  2  0  0  0
 14 38  1  0  0  0
 15 17  1  0  0  0
 15 14  1  0  0  0
 16 15  2  0  0  0
 17 39  1  0  0  0
 18 17  2  0  0  0
 18 40  1  0  0  0
 19 18  1  0  0  0
 20 19  1  0  0  0
 20 41  1  0  0  0
 21 20  2  0  0  0
 22 21  1  0  0  0
 23 22  1  0  0  0
 23 42  1  0  0  0
 23 43  1  0  0  0
 23 44  1  0  0  0
 24 26  2  0  0  0
 24 21  1  0  0  0
 25 24  1  0  0  0
 25 45  1  0  0  0
 26 27  1  0  0  0
 26 46  1  0  0  0
 27 19  2  0  0  0
 27 47  1  0  0  0
M  END
$$$$
