CXM
  CCTOOLS-1004241124

 23 22  0  0  1  0  0  0  0  0999 V2000
    0.6910    0.4550   -1.0200 N   0  0  0  0  0
   -0.4990   -0.3220   -0.6680 C   0  0  0  0  0
   -0.9600    0.0590    0.7390 C   0  0  0  0  0
    0.1570   -0.2380    1.7400 C   0  0  0  0  0
   -0.3880    0.2140    3.4090 S   0  0  0  0  0
    1.0910   -0.2330    4.3580 C   0  0  0  0  0
   -1.6000   -0.0290   -1.6540 C   0  0  0  0  0
   -2.4220   -0.8760   -1.9120 O   0  0  0  0  0
    1.6100   -0.0620   -1.8580 C   0  0  0  0  0
    1.4520   -1.1740   -2.3220 O   0  0  0  0  0
    2.7040    0.6520   -2.1820 O   0  0  0  0  0
   -1.6690    1.1730   -2.2460 O   0  0  0  0  0
    0.8170    1.3430   -0.6500 H   0  0  0  0  0
   -0.2600   -1.3850   -0.6960 H   0  0  0  0  0
   -1.8460   -0.5190    1.0010 H   0  0  0  0  0
   -1.1990    1.1220    0.7670 H   0  0  0  0  0
    1.0430    0.3400    1.4780 H   0  0  0  0  0
    0.3960   -1.3010    1.7120 H   0  0  0  0  0
    0.9250   -0.0180    5.4130 H   0  0  0  0  0
    1.2950   -1.2960    4.2320 H   0  0  0  0  0
    1.9420    0.3450    3.9980 H   0  0  0  0  0
    3.3640    0.2810   -2.7830 H   0  0  0  0  0
   -2.3750    1.3610   -2.8790 H   0  0  0  0  0
  1  2  1  0  0  0
  1  9  1  0  0  0
  1 13  1  0  0  0
  2  3  1  0  0  0
  2  7  1  0  0  0
  2 14  1  0  0  0
  3  4  1  0  0  0
  3 15  1  0  0  0
  3 16  1  0  0  0
  4  5  1  0  0  0
  4 17  1  0  0  0
  4 18  1  0  0  0
  5  6  1  0  0  0
  6 19  1  0  0  0
  6 20  1  0  0  0
  6 21  1  0  0  0
  7  8  2  0  0  0
  7 12  1  0  0  0
  9 10  2  0  0  0
  9 11  1  0  0  0
 11 22  1  0  0  0
 12 23  1  0  0  0
M  END
$$$$
