CXS
  CCTOOLS-0919241040

 33 33  0  0  0  0  0  0  0  0999 V2000
   -0.0050    0.0580    3.7290 S   0  0  0  0  0
   -1.3850   -0.0200    4.0600 O   0  0  0  0  0
    0.7580    1.2340    3.9540 O   0  0  0  0  0
    0.6270   -0.9430    4.6850 O   0  0  0  0  0
    0.3330   -0.6560    2.0970 C   0  0  0  0  0
   -0.2510    0.2500    1.0120 C   0  0  0  0  0
    0.0340   -0.3520   -0.3640 C   0  0  0  0  0
   -0.5260    0.5170   -1.4060 N   0  0  0  0  0
   -0.2190   -0.1140   -2.6950 C   0  0  0  0  0
   -1.3110    0.2350   -3.7090 C   0  0  0  0  0
   -0.9900   -0.4230   -5.0520 C   0  0  0  0  0
    0.3590    0.0850   -5.5600 C   0  0  0  0  0
    1.4510   -0.2650   -4.5470 C   0  0  0  0  0
    1.1300    0.3930   -3.2040 C   0  0  0  0  0
    0.4760   -0.6100    5.5800 H   0  0  0  0  0
    1.4100   -0.7450    1.9550 H   0  0  0  0  0
   -0.1240   -1.6430    2.0310 H   0  0  0  0  0
   -1.3280    0.3380    1.1540 H   0  0  0  0  0
    0.2060    1.2370    1.0780 H   0  0  0  0  0
    1.1110   -0.4410   -0.5060 H   0  0  0  0  0
   -0.4230   -1.3390   -0.4300 H   0  0  0  0  0
   -1.5290    0.4870   -1.3000 H   0  0  0  0  0
   -0.1750   -1.1960   -2.5680 H   0  0  0  0  0
   -2.2730   -0.1260   -3.3460 H   0  0  0  0  0
   -1.3540    1.3170   -3.8360 H   0  0  0  0  0
   -0.9470   -1.5040   -4.9240 H   0  0  0  0  0
   -1.7680   -0.1730   -5.7730 H   0  0  0  0  0
    0.5870   -0.3840   -6.5170 H   0  0  0  0  0
    0.3150    1.1670   -5.6880 H   0  0  0  0  0
    1.4940   -1.3460   -4.4200 H   0  0  0  0  0
    2.4130    0.0970   -4.9100 H   0  0  0  0  0
    1.0870    1.4750   -3.3310 H   0  0  0  0  0
    1.9080    0.1440   -2.4820 H   0  0  0  0  0
  1  2  2  0  0  0
  1  3  2  0  0  0
  1  4  1  0  0  0
  1  5  1  0  0  0
  4 15  1  0  0  0
  5  6  1  0  0  0
  5 16  1  0  0  0
  5 17  1  0  0  0
  6  7  1  0  0  0
  6 18  1  0  0  0
  6 19  1  0  0  0
  7  8  1  0  0  0
  7 20  1  0  0  0
  7 21  1  0  0  0
  8  9  1  0  0  0
  8 22  1  0  0  0
  9 10  1  0  0  0
  9 14  1  0  0  0
  9 23  1  0  0  0
 10 11  1  0  0  0
 10 24  1  0  0  0
 10 25  1  0  0  0
 11 12  1  0  0  0
 11 26  1  0  0  0
 11 27  1  0  0  0
 12 13  1  0  0  0
 12 28  1  0  0  0
 12 29  1  0  0  0
 13 14  1  0  0  0
 13 30  1  0  0  0
 13 31  1  0  0  0
 14 32  1  0  0  0
 14 33  1  0  0  0
M  END
$$$$
