CZA
  CCTOOLS-0919241040

 45 49  0  0  1  0  0  0  0  0999 V2000
   -1.9170   -7.1230    2.1600 O   0  0  0  0  0
   -0.9840   -6.9420    1.3950 C   0  0  0  0  0
   -0.0830   -8.0180    0.9090 C   0  0  0  0  0
   -0.0850   -9.4210    1.2790 C   0  0  0  0  0
    0.2480  -10.3000    0.4700 O   0  0  0  0  0
   -0.4950   -9.7960    2.6880 C   0  0  0  0  0
   -0.5590   -5.6050    0.8220 C   0  0  0  0  0
   -1.5720   -4.8580   -0.0280 C   0  0  0  0  0
   -2.4300   -3.9040    0.7260 C   0  0  0  0  0
   -3.6040   -4.0410    1.4310 C   0  0  0  0  0
   -3.9680   -2.7910    1.8920 N   0  0  0  0  0
   -3.0470   -1.8480    1.4920 C   0  0  0  0  0
   -2.0900   -2.5390    0.7740 C   0  0  0  0  0
   -2.9510   -0.4690    1.6860 C   0  0  0  0  0
   -1.8320    0.1710    1.1230 C   0  0  0  0  0
   -0.8570   -0.5340    0.4020 C   0  0  0  0  0
   -0.9800   -1.9120    0.2030 C   0  0  0  0  0
    0.0300   -2.7890   -0.4860 C   0  0  0  0  0
   -0.6080   -4.1190   -1.0410 C   0  0  0  0  0
    0.4380   -5.2430   -1.3830 C   0  0  0  0  0
   -0.0880   -6.0620   -2.5790 C   0  0  0  0  0
    1.8410   -4.7210   -1.7040 C   0  0  0  0  0
    0.4500   -6.0560   -0.1490 N   0  0  0  0  0
    0.7090   -7.4130    0.0100 C   0  0  0  0  0
    1.6680   -8.0720   -0.7130 O   0  0  0  0  0
    2.4600   -7.5260   -0.7970 H   0  0  0  0  0
   -0.8320   -8.9140    3.2390 H   0  0  0  0  0
    0.3590  -10.2320    3.2140 H   0  0  0  0  0
   -1.3190  -10.5140    2.6510 H   0  0  0  0  0
   -0.0890   -5.0000    1.6070 H   0  0  0  0  0
   -2.2110   -5.5590   -0.5820 H   0  0  0  0  0
   -4.2220   -4.9010    1.6440 H   0  0  0  0  0
   -4.7960   -2.5980    2.4390 H   0  0  0  0  0
   -3.6950    0.0850    2.2470 H   0  0  0  0  0
   -1.7160    1.2440    1.2600 H   0  0  0  0  0
   -0.0000    0.0000    0.0000 H   0  0  0  0  0
    0.4850   -2.2420   -1.3200 H   0  0  0  0  0
    0.8240   -3.0190    0.2350 H   0  0  0  0  0
   -1.1860   -3.8430   -1.9350 H   0  0  0  0  0
   -0.9490   -6.6670   -2.2810 H   0  0  0  0  0
   -0.3980   -5.3980   -3.3920 H   0  0  0  0  0
    0.6900   -6.7310   -2.9580 H   0  0  0  0  0
    1.9730   -4.6150   -2.7850 H   0  0  0  0  0
    2.0020   -3.7430   -1.2400 H   0  0  0  0  0
    2.6030   -5.4100   -1.3300 H   0  0  0  0  0
  1  2  2  0  0  0
  2  3  1  0  0  0
  2  7  1  0  0  0
  3 24  2  0  0  0
  3  4  1  0  0  0
  4  6  1  0  0  0
  4  5  2  0  0  0
  6 27  1  0  0  0
  6 28  1  0  0  0
  6 29  1  0  0  0
  7 23  1  0  0  0
  7  8  1  0  0  0
  7 30  1  0  0  0
  8 19  1  0  0  0
  8  9  1  0  0  0
  8 31  1  0  0  0
  9 13  1  0  0  0
  9 10  2  0  0  0
 10 11  1  0  0  0
 10 32  1  0  0  0
 11 12  1  0  0  0
 11 33  1  0  0  0
 12 13  1  0  0  0
 12 14  2  0  0  0
 13 17  2  0  0  0
 14 15  1  0  0  0
 14 34  1  0  0  0
 15 16  2  0  0  0
 15 35  1  0  0  0
 16 17  1  0  0  0
 16 36  1  0  0  0
 17 18  1  0  0  0
 18 19  1  0  0  0
 18 37  1  0  0  0
 18 38  1  0  0  0
 19 20  1  0  0  0
 19 39  1  0  0  0
 20 21  1  0  0  0
 20 22  1  0  0  0
 20 23  1  0  0  0
 21 40  1  0  0  0
 21 41  1  0  0  0
 21 42  1  0  0  0
 22 43  1  0  0  0
 22 44  1  0  0  0
 22 45  1  0  0  0
 23 24  1  0  0  0
 24 25  1  0  0  0
 25 26  1  0  0  0
M  END
$$$$
