D12
  CCTOOLS-0919241041

 38 37  0  0  0  0  0  0  0  0999 V2000
   -0.3270    0.0000    6.8770 C   0  0  0  0  0
    0.5340    0.0000    5.6130 C   0  0  0  0  0
   -0.3690    0.0000    4.3790 C   0  0  0  0  0
    0.4930    0.0000    3.1150 C   0  0  0  0  0
   -0.4100    0.0000    1.8800 C   0  0  0  0  0
    0.4520    0.0000    0.6170 C   0  0  0  0  0
   -0.4520    0.0000   -0.6170 C   0  0  0  0  0
    0.4100    0.0000   -1.8800 C   0  0  0  0  0
   -0.4930    0.0000   -3.1150 C   0  0  0  0  0
    0.3690    0.0000   -4.3790 C   0  0  0  0  0
   -0.5340    0.0000   -5.6130 C   0  0  0  0  0
    0.3270    0.0000   -6.8770 C   0  0  0  0  0
   -0.9560   -0.8900    6.8870 H   0  0  0  0  0
    0.3160    0.0000    7.7560 H   0  0  0  0  0
   -0.9560    0.8900    6.8870 H   0  0  0  0  0
    1.1640    0.8900    5.6030 H   0  0  0  0  0
    1.1640   -0.8900    5.6030 H   0  0  0  0  0
   -0.9980   -0.8900    4.3890 H   0  0  0  0  0
   -0.9980    0.8900    4.3890 H   0  0  0  0  0
    1.1220    0.8900    3.1040 H   0  0  0  0  0
    1.1220   -0.8900    3.1040 H   0  0  0  0  0
   -1.0390   -0.8900    1.8910 H   0  0  0  0  0
   -1.0390    0.8900    1.8910 H   0  0  0  0  0
    1.0810    0.8900    0.6060 H   0  0  0  0  0
    1.0810   -0.8900    0.6060 H   0  0  0  0  0
   -1.0810   -0.8900   -0.6060 H   0  0  0  0  0
   -1.0810    0.8900   -0.6060 H   0  0  0  0  0
    1.0390    0.8900   -1.8910 H   0  0  0  0  0
    1.0390   -0.8900   -1.8910 H   0  0  0  0  0
   -1.1220   -0.8900   -3.1040 H   0  0  0  0  0
   -1.1220    0.8900   -3.1040 H   0  0  0  0  0
    0.9980    0.8900   -4.3890 H   0  0  0  0  0
    0.9980   -0.8900   -4.3890 H   0  0  0  0  0
   -1.1640   -0.8900   -5.6030 H   0  0  0  0  0
   -1.1640    0.8900   -5.6030 H   0  0  0  0  0
   -0.3160    0.0000   -7.7560 H   0  0  0  0  0
    0.9560    0.8900   -6.8870 H   0  0  0  0  0
    0.9560   -0.8900   -6.8870 H   0  0  0  0  0
  1  2  1  0  0  0
  1 13  1  0  0  0
  1 14  1  0  0  0
  1 15  1  0  0  0
  2  3  1  0  0  0
  2 16  1  0  0  0
  2 17  1  0  0  0
  3  4  1  0  0  0
  3 18  1  0  0  0
  3 19  1  0  0  0
  4  5  1  0  0  0
  4 20  1  0  0  0
  4 21  1  0  0  0
  5  6  1  0  0  0
  5 22  1  0  0  0
  5 23  1  0  0  0
  6  7  1  0  0  0
  6 24  1  0  0  0
  6 25  1  0  0  0
  7  8  1  0  0  0
  7 26  1  0  0  0
  7 27  1  0  0  0
  8  9  1  0  0  0
  8 28  1  0  0  0
  8 29  1  0  0  0
  9 10  1  0  0  0
  9 30  1  0  0  0
  9 31  1  0  0  0
 10 11  1  0  0  0
 10 32  1  0  0  0
 10 33  1  0  0  0
 11 12  1  0  0  0
 11 34  1  0  0  0
 11 35  1  0  0  0
 12 36  1  0  0  0
 12 37  1  0  0  0
 12 38  1  0  0  0
M  END
$$$$
