D4P
  CCTOOLS-1004241125

 21 21  0  0  1  0  0  0  0  0999 V2000
    1.9760   -2.3600   -2.1980 N   0  0  0  0  0
    1.9310   -1.0130   -1.6030 C   0  0  0  0  0
    3.1350   -0.2290   -2.1240 C   0  0  0  0  0
    4.0220   -0.6950   -2.8270 O   0  0  0  0  0
    1.8850   -1.0360   -0.1120 C   0  0  0  0  0
    0.8070   -0.4630    0.5610 C   0  0  0  0  0
    0.7640   -0.4840    1.9550 C   0  0  0  0  0
    1.8000   -1.0790    2.6760 C   0  0  0  0  0
    1.7590   -1.0980    4.0360 O   0  0  0  0  0
    2.8780   -1.6520    2.0020 C   0  0  0  0  0
    2.9210   -1.6310    0.6080 C   0  0  0  0  0
    3.1480    1.0650   -1.7030 O   0  0  0  0  0
    1.4590   -3.0750   -1.7480 H   0  0  0  0  0
    2.6700   -2.5320   -2.8850 H   0  0  0  0  0
    1.0350   -0.5050   -2.0050 H   0  0  0  0  0
   -0.0050    0.0020    0.0080 H   0  0  0  0  0
   -0.0790   -0.0360    2.4740 H   0  0  0  0  0
    1.0630   -0.5040    4.3600 H   0  0  0  0  0
    3.6890   -2.1160    2.5580 H   0  0  0  0  0
    3.7660   -2.0800    0.0920 H   0  0  0  0  0
    3.9180    1.5930   -2.0040 H   0  0  0  0  0
  1  2  1  0  0  0
  1 13  1  0  0  0
  1 14  1  0  0  0
  2  3  1  0  0  0
  2  5  1  0  0  0
  2 15  1  0  0  0
  3  4  2  0  0  0
  3 12  1  0  0  0
  5  6  2  0  0  0
  5 11  1  0  0  0
  6  7  1  0  0  0
  6 16  1  0  0  0
  7  8  2  0  0  0
  7 17  1  0  0  0
  8  9  1  0  0  0
  8 10  1  0  0  0
  9 18  1  0  0  0
 10 11  2  0  0  0
 10 19  1  0  0  0
 11 20  1  0  0  0
 12 21  1  0  0  0
M  END
$$$$
