D75
  CCTOOLS-0919241042

 49 52  0  0  1  0  0  0  0  0999 V2000
   -3.2650   -0.9230   -0.2210 C   0  0  0  0  0
   -4.5610   -1.7260   -0.0780 C   0  0  0  0  0
   -4.4050   -3.0000   -0.7060 O   0  0  0  0  0
   -5.7030   -0.9600   -0.7510 C   0  0  0  0  0
   -6.9310   -1.6670   -0.5600 O   0  0  0  0  0
   -5.8100    0.4330   -0.1210 C   0  0  0  0  0
   -6.8260    1.1830   -0.7900 O   0  0  0  0  0
   -4.4660    1.1520   -0.2620 C   0  0  0  0  0
   -3.4420    0.3710    0.3570 O   0  0  0  0  0
   -4.5440    2.5000    0.4070 C   0  0  0  0  0
   -2.2050   -1.6050    0.4530 O   0  0  0  0  0
    0.1080   -1.6940    0.9650 C   0  0  0  0  0
   -0.9600   -1.0780    0.3340 C   0  0  0  0  0
   -0.7690    0.0770   -0.4210 C   0  0  0  0  0
    0.4800    0.6150   -0.5520 C   0  0  0  0  0
    1.5650    0.0030    0.0730 C   0  0  0  0  0
    1.3830   -1.1560    0.8500 C   0  0  0  0  0
    2.9330    0.5410   -0.0570 C   0  0  0  0  0
    4.0190   -0.3470    0.3990 C   0  0  0  0  0
    3.6850   -1.4430    1.1300 C   0  0  0  0  0
    2.4280   -1.7360    1.4700 O   0  0  0  0  0
    5.4350   -0.0530    0.0690 C   0  0  0  0  0
    6.1540   -0.9190   -0.7540 C   0  0  0  0  0
    7.4710   -0.6420   -1.0590 C   0  0  0  0  0
    8.0790    0.4960   -0.5490 C   0  0  0  0  0
    7.3650    1.3600    0.2700 C   0  0  0  0  0
    6.0470    1.0920    0.5750 C   0  0  0  0  0
    3.1520    1.6500   -0.5130 O   0  0  0  0  0
    9.3760    0.7660   -0.8520 O   0  0  0  0  0
   -5.3720    3.4410   -0.0750 O   0  0  0  0  0
   -3.8630    2.7340    1.3770 O   0  0  0  0  0
   -3.0160   -0.8190   -1.2770 H   0  0  0  0  0
   -4.7880   -1.8660    0.9790 H   0  0  0  0  0
   -5.5000   -0.8630   -1.8170 H   0  0  0  0  0
   -6.0630    0.3370    0.9350 H   0  0  0  0  0
   -4.2330    1.2840   -1.3190 H   0  0  0  0  0
   -0.0510   -2.5900    1.5480 H   0  0  0  0  0
    5.6820   -1.8050   -1.1510 H   0  0  0  0  0
   -1.6120    0.5490   -0.9040 H   0  0  0  0  0
    8.0290   -1.3120   -1.6960 H   0  0  0  0  0
    0.6260    1.5100   -1.1380 H   0  0  0  0  0
    7.8410    2.2450    0.6660 H   0  0  0  0  0
    5.4920    1.7650    1.2120 H   0  0  0  0  0
    9.4910    1.3010   -1.6490 H   0  0  0  0  0
   -3.6940   -3.5380   -0.3330 H   0  0  0  0  0
   -6.9310   -2.5610   -0.9300 H   0  0  0  0  0
   -6.9480    2.0770   -0.4420 H   0  0  0  0  0
   -5.3870    4.2900    0.3870 H   0  0  0  0  0
    4.4740   -2.1050    1.4550 H   0  0  0  0  0
  1  2  1  0  0  0
  1  9  1  0  0  0
  2  4  1  0  0  0
  3  2  1  0  0  0
  4 34  1  0  0  0
  4  5  1  0  0  0
  4  6  1  0  0  0
  6  7  1  0  0  0
  7 47  1  0  0  0
  8  6  1  0  0  0
  8 36  1  0  0  0
  8 10  1  0  0  0
  9  8  1  0  0  0
 10 31  2  0  0  0
 10 30  1  0  0  0
 11  1  1  0  0  0
 12 37  1  0  0  0
 12 13  1  0  0  0
 13 11  1  0  0  0
 14 13  2  0  0  0
 14 39  1  0  0  0
 15 14  1  0  0  0
 16 15  2  0  0  0
 16 17  1  0  0  0
 17 12  2  0  0  0
 18 16  1  0  0  0
 19 18  1  0  0  0
 19 20  2  0  0  0
 20 21  1  0  0  0
 21 17  1  0  0  0
 22 19  1  0  0  0
 23 22  2  0  0  0
 23 38  1  0  0  0
 24 23  1  0  0  0
 25 24  2  0  0  0
 25 26  1  0  0  0
 26 27  2  0  0  0
 27 22  1  0  0  0
 27 43  1  0  0  0
 28 18  2  0  0  0
 29 25  1  0  0  0
 30 48  1  0  0  0
 32  1  1  0  0  0
 33  2  1  0  0  0
 35  6  1  0  0  0
 40 24  1  0  0  0
 41 15  1  0  0  0
 42 26  1  0  0  0
 44 29  1  0  0  0
 45  3  1  0  0  0
 46  5  1  0  0  0
 49 20  1  0  0  0
M  END
$$$$
