DAB
  CCTOOLS-0328250954

 18 17  0  0  1  0  0  0  0  0999 V2000
   -1.7300    0.3700   -0.1440 N   0  0  0  0  0
   -0.2750    0.5230   -0.2750 C   0  0  0  0  0
    0.1710   -0.0360   -1.6010 C   0  0  0  0  0
   -0.4370   -0.9490   -2.1070 O   0  0  0  0  0
    0.4210   -0.2310    0.8570 C   0  0  0  0  0
   -0.0320    0.3370    2.2030 C   0  0  0  0  0
    0.6360   -0.3880    3.2920 N   0  0  0  0  0
    1.2450    0.4790   -2.2200 O   0  0  0  0  0
   -1.9690    0.6600    0.7910 H   0  0  0  0  0
   -1.9230   -0.6180   -0.2000 H   0  0  0  0  0
   -0.0150    1.5810   -0.2210 H   0  0  0  0  0
    1.5000   -0.1170    0.7600 H   0  0  0  0  0
    0.1610   -1.2880    0.8030 H   0  0  0  0  0
   -1.1120    0.2230    2.3010 H   0  0  0  0  0
    0.2270    1.3940    2.2570 H   0  0  0  0  0
    0.3090    0.0180    4.1550 H   0  0  0  0  0
    0.2880   -1.3340    3.2660 H   0  0  0  0  0
    1.5310    0.1200   -3.0710 H   0  0  0  0  0
  1  2  1  0  0  0
  1  9  1  0  0  0
  1 10  1  0  0  0
  2  3  1  0  0  0
  2  5  1  0  0  0
  2 11  1  0  0  0
  3  4  2  0  0  0
  3  8  1  0  0  0
  5  6  1  0  0  0
  5 12  1  0  0  0
  5 13  1  0  0  0
  6  7  1  0  0  0
  6 14  1  0  0  0
  6 15  1  0  0  0
  7 16  1  0  0  0
  7 17  1  0  0  0
  8 18  1  0  0  0
M  END
$$$$
