DAH
  CCTOOLS-1004241125

 25 25  0  0  1  0  0  0  0  0999 V2000
    1.8740    1.3760    0.9860 N   0  0  0  0  0
    2.0000    0.0280    0.4160 C   0  0  0  0  0
    3.4480   -0.2560    0.1110 C   0  0  0  0  0
    4.2310    0.6570   -0.0050 O   0  0  0  0  0
    1.1810   -0.0580   -0.8730 C   0  0  0  0  0
   -0.2830    0.1040   -0.5510 C   0  0  0  0  0
   -0.8520    1.3630   -0.5460 C   0  0  0  0  0
   -1.0540   -1.0080   -0.2660 C   0  0  0  0  0
   -2.1940    1.5170   -0.2500 C   0  0  0  0  0
   -2.3990   -0.8610    0.0310 C   0  0  0  0  0
   -2.9710    0.4080    0.0410 C   0  0  0  0  0
   -3.1580   -1.9540    0.3110 O   0  0  0  0  0
   -4.2910    0.5570    0.3330 O   0  0  0  0  0
    3.8680   -1.5230   -0.0310 O   0  0  0  0  0
    2.2120    2.0750    0.3410 H   0  0  0  0  0
    0.9220    1.5660    1.2590 H   0  0  0  0  0
    1.6290   -0.7050    1.1320 H   0  0  0  0  0
    1.4920    0.7330   -1.5550 H   0  0  0  0  0
    1.3440   -1.0280   -1.3430 H   0  0  0  0  0
   -0.2480    2.2280   -0.7740 H   0  0  0  0  0
   -0.6070   -1.9920   -0.2750 H   0  0  0  0  0
   -2.6370    2.5020   -0.2470 H   0  0  0  0  0
   -3.1800   -2.1880    1.2490 H   0  0  0  0  0
   -4.8720    0.5140   -0.4390 H   0  0  0  0  0
    4.8060   -1.6550   -0.2260 H   0  0  0  0  0
  1  2  1  0  0  0
  1 15  1  0  0  0
  1 16  1  0  0  0
  2  3  1  0  0  0
  2  5  1  0  0  0
  2 17  1  0  0  0
  3  4  2  0  0  0
  3 14  1  0  0  0
  5  6  1  0  0  0
  5 18  1  0  0  0
  5 19  1  0  0  0
  6  7  2  0  0  0
  6  8  1  0  0  0
  7  9  1  0  0  0
  7 20  1  0  0  0
  8 10  2  0  0  0
  8 21  1  0  0  0
  9 11  2  0  0  0
  9 22  1  0  0  0
 10 11  1  0  0  0
 10 12  1  0  0  0
 11 13  1  0  0  0
 12 23  1  0  0  0
 13 24  1  0  0  0
 14 25  1  0  0  0
M  END
$$$$
