DAO
  CCTOOLS-1004241125

 38 37  0  0  0  0  0  0  0  0999 V2000
    1.3040    0.0000   -5.6760 O   0  0  0  0  0
   -0.5100    0.0000   -6.9380 O   0  0  0  0  0
    0.0970    0.0000   -5.7410 C   0  0  0  0  0
   -0.7240    0.0000   -4.4780 C   0  0  0  0  0
    0.2050    0.0000   -3.2640 C   0  0  0  0  0
   -0.6290    0.0000   -1.9820 C   0  0  0  0  0
    0.3010    0.0000   -0.7670 C   0  0  0  0  0
   -0.5330    0.0000    0.5140 C   0  0  0  0  0
    0.3960    0.0000    1.7290 C   0  0  0  0  0
   -0.4380    0.0000    3.0110 C   0  0  0  0  0
    0.4920    0.0000    4.2250 C   0  0  0  0  0
   -0.3420    0.0000    5.5070 C   0  0  0  0  0
    0.5870    0.0000    6.7220 C   0  0  0  0  0
   -0.2470    0.0000    8.0040 C   0  0  0  0  0
    0.0170    0.0000   -7.7480 H   0  0  0  0  0
   -1.3530   -0.8900   -4.4540 H   0  0  0  0  0
   -1.3530    0.8900   -4.4540 H   0  0  0  0  0
    0.8340    0.8900   -3.2880 H   0  0  0  0  0
    0.8340   -0.8900   -3.2880 H   0  0  0  0  0
   -1.2580   -0.8900   -1.9580 H   0  0  0  0  0
   -1.2570    0.8900   -1.9580 H   0  0  0  0  0
    0.9300    0.8900   -0.7910 H   0  0  0  0  0
    0.9300   -0.8900   -0.7910 H   0  0  0  0  0
   -1.1620   -0.8900    0.5380 H   0  0  0  0  0
   -1.1620    0.8900    0.5380 H   0  0  0  0  0
    1.0250    0.8900    1.7050 H   0  0  0  0  0
    1.0250   -0.8900    1.7050 H   0  0  0  0  0
   -1.0660   -0.8900    3.0350 H   0  0  0  0  0
   -1.0660    0.8900    3.0350 H   0  0  0  0  0
    1.1210    0.8900    4.2010 H   0  0  0  0  0
    1.1210   -0.8900    4.2010 H   0  0  0  0  0
   -0.9710   -0.8900    5.5310 H   0  0  0  0  0
   -0.9710    0.8900    5.5310 H   0  0  0  0  0
    1.2160    0.8900    6.6980 H   0  0  0  0  0
    1.2160   -0.8900    6.6980 H   0  0  0  0  0
    0.4150    0.0000    8.8690 H   0  0  0  0  0
   -0.8750    0.8900    8.0280 H   0  0  0  0  0
   -0.8750   -0.8900    8.0280 H   0  0  0  0  0
  1  3  2  0  0  0
  2  3  1  0  0  0
  2 15  1  0  0  0
  3  4  1  0  0  0
  4  5  1  0  0  0
  4 16  1  0  0  0
  4 17  1  0  0  0
  5  6  1  0  0  0
  5 18  1  0  0  0
  5 19  1  0  0  0
  6  7  1  0  0  0
  6 20  1  0  0  0
  6 21  1  0  0  0
  7  8  1  0  0  0
  7 22  1  0  0  0
  7 23  1  0  0  0
  8  9  1  0  0  0
  8 24  1  0  0  0
  8 25  1  0  0  0
  9 10  1  0  0  0
  9 26  1  0  0  0
  9 27  1  0  0  0
 10 11  1  0  0  0
 10 28  1  0  0  0
 10 29  1  0  0  0
 11 12  1  0  0  0
 11 30  1  0  0  0
 11 31  1  0  0  0
 12 13  1  0  0  0
 12 32  1  0  0  0
 12 33  1  0  0  0
 13 14  1  0  0  0
 13 34  1  0  0  0
 13 35  1  0  0  0
 14 36  1  0  0  0
 14 37  1  0  0  0
 14 38  1  0  0  0
M  END
$$$$
