DBB
  CCTOOLS-1004241126

 16 15  0  0  1  0  0  0  0  0999 V2000
    0.6340    1.5560    0.3690 N   0  0  0  0  0
    0.3100    0.1250    0.4280 C   0  0  0  0  0
   -1.1260   -0.0830    0.0220 C   0  0  0  0  0
   -1.7020    0.7650   -0.6170 O   0  0  0  0  0
    1.2260   -0.6450   -0.5250 C   0  0  0  0  0
    2.6740   -0.5360   -0.0410 C   0  0  0  0  0
   -1.7660   -1.2100    0.3710 O   0  0  0  0  0
    0.5060    1.9180   -0.5640 H   0  0  0  0  0
    0.0870    2.0790    1.0370 H   0  0  0  0  0
    0.4560   -0.2390    1.4450 H   0  0  0  0  0
    0.9280   -1.6930   -0.5480 H   0  0  0  0  0
    1.1460   -0.2220   -1.5270 H   0  0  0  0  0
    2.9710    0.5120   -0.0180 H   0  0  0  0  0
    2.7540   -0.9590    0.9610 H   0  0  0  0  0
    3.3260   -1.0850   -0.7200 H   0  0  0  0  0
   -2.6860   -1.2980    0.0880 H   0  0  0  0  0
  1  2  1  0  0  0
  1  8  1  0  0  0
  1  9  1  0  0  0
  2  3  1  0  0  0
  2  5  1  0  0  0
  2 10  1  0  0  0
  3  4  2  0  0  0
  3  7  1  0  0  0
  5  6  1  0  0  0
  5 11  1  0  0  0
  5 12  1  0  0  0
  6 13  1  0  0  0
  6 14  1  0  0  0
  6 15  1  0  0  0
  7 16  1  0  0  0
M  END
$$$$
