DCQ
  CCTOOLS-0919241043

 53 53  0  0  0  0  0  0  0  0999 V2000
    4.4460   -2.5130    0.1980 O   0  0  0  0  0
    3.8960   -1.4470    0.0130 C   0  0  0  0  0
    4.5560   -0.1940    0.4280 C   0  0  0  0  0
    5.7790   -0.2320    1.0170 O   0  0  0  0  0
    5.8590   -0.8460    2.3050 C   0  0  0  0  0
    3.9410    0.9930    0.2200 C   0  0  0  0  0
    4.5450    2.1480    0.6000 O   0  0  0  0  0
    4.9360    3.0480   -0.4400 C   0  0  0  0  0
    2.6120    1.0300   -0.4210 C   0  0  0  0  0
    2.0570    2.0940   -0.6090 O   0  0  0  0  0
    2.5670   -1.4030   -0.6340 C   0  0  0  0  0
    1.8960   -2.6830   -1.0620 C   0  0  0  0  0
    1.9550   -0.2290   -0.8350 C   0  0  0  0  0
    0.5990   -0.1900   -1.4890 C   0  0  0  0  0
   -0.4870   -0.1490   -0.4110 C   0  0  0  0  0
   -1.8640   -0.1090   -1.0760 C   0  0  0  0  0
   -2.9490   -0.0690    0.0020 C   0  0  0  0  0
   -4.3270   -0.0290   -0.6620 C   0  0  0  0  0
   -5.4120    0.0120    0.4160 C   0  0  0  0  0
   -6.7900    0.0510   -0.2490 C   0  0  0  0  0
   -7.8750    0.0920    0.8290 C   0  0  0  0  0
   -9.2520    0.1320    0.1650 C   0  0  0  0  0
  -10.3370    0.1730    1.2430 C   0  0  0  0  0
    6.8680   -0.7290    2.7010 H   0  0  0  0  0
    5.1470   -0.3700    2.9790 H   0  0  0  0  0
    5.6240   -1.9060    2.2170 H   0  0  0  0  0
    5.7070    2.5820   -1.0530 H   0  0  0  0  0
    4.0710    3.2840   -1.0600 H   0  0  0  0  0
    5.3280    3.9640    0.0020 H   0  0  0  0  0
    2.5370   -3.5290   -0.8140 H   0  0  0  0  0
    0.9430   -2.7850   -0.5430 H   0  0  0  0  0
    1.7230   -2.6600   -2.1380 H   0  0  0  0  0
    0.5220    0.6990   -2.1150 H   0  0  0  0  0
    0.4660   -1.0800   -2.1040 H   0  0  0  0  0
   -0.4110   -1.0380    0.2150 H   0  0  0  0  0
   -0.3540    0.7410    0.2040 H   0  0  0  0  0
   -1.9400    0.7800   -1.7010 H   0  0  0  0  0
   -1.9970   -0.9990   -1.6910 H   0  0  0  0  0
   -2.8730   -0.9580    0.6280 H   0  0  0  0  0
   -2.8170    0.8210    0.6180 H   0  0  0  0  0
   -4.4030    0.8600   -1.2880 H   0  0  0  0  0
   -4.4590   -0.9190   -1.2770 H   0  0  0  0  0
   -5.3360   -0.8770    1.0420 H   0  0  0  0  0
   -5.2800    0.9020    1.0310 H   0  0  0  0  0
   -6.8660    0.9410   -0.8740 H   0  0  0  0  0
   -6.9220   -0.8390   -0.8640 H   0  0  0  0  0
   -7.7990   -0.7970    1.4550 H   0  0  0  0  0
   -7.7420    0.9820    1.4450 H   0  0  0  0  0
   -9.3280    1.0210   -0.4610 H   0  0  0  0  0
   -9.3850   -0.7580   -0.4500 H   0  0  0  0  0
  -10.2610   -0.7170    1.8690 H   0  0  0  0  0
  -10.2050    1.0620    1.8580 H   0  0  0  0  0
  -11.3190    0.2010    0.7700 H   0  0  0  0  0
  1  2  2  0  0  0
  2  3  1  0  0  0
  2 11  1  0  0  0
  3  4  1  0  0  0
  3  6  2  0  0  0
  4  5  1  0  0  0
  5 24  1  0  0  0
  5 25  1  0  0  0
  5 26  1  0  0  0
  6  7  1  0  0  0
  6  9  1  0  0  0
  7  8  1  0  0  0
  8 27  1  0  0  0
  8 28  1  0  0  0
  8 29  1  0  0  0
  9 10  2  0  0  0
  9 13  1  0  0  0
 11 12  1  0  0  0
 11 13  2  0  0  0
 12 30  1  0  0  0
 12 31  1  0  0  0
 12 32  1  0  0  0
 13 14  1  0  0  0
 14 15  1  0  0  0
 14 33  1  0  0  0
 14 34  1  0  0  0
 15 16  1  0  0  0
 15 35  1  0  0  0
 15 36  1  0  0  0
 16 17  1  0  0  0
 16 37  1  0  0  0
 16 38  1  0  0  0
 17 18  1  0  0  0
 17 39  1  0  0  0
 17 40  1  0  0  0
 18 19  1  0  0  0
 18 41  1  0  0  0
 18 42  1  0  0  0
 19 20  1  0  0  0
 19 43  1  0  0  0
 19 44  1  0  0  0
 20 21  1  0  0  0
 20 45  1  0  0  0
 20 46  1  0  0  0
 21 22  1  0  0  0
 21 47  1  0  0  0
 21 48  1  0  0  0
 22 23  1  0  0  0
 22 49  1  0  0  0
 22 50  1  0  0  0
 23 51  1  0  0  0
 23 52  1  0  0  0
 23 53  1  0  0  0
M  END
$$$$
