DCS
  CCTOOLS-0919241043

 38 39  0  0  1  0  0  0  0  0999 V2000
    3.7320    0.4880    0.8890 N   0  0  0  0  0
    3.9460    0.1950   -0.3780 C   0  0  0  0  0
    5.3280    0.3510   -0.9570 C   0  0  0  0  0
    2.9100   -0.2490   -1.1860 C   0  0  0  0  0
    3.1350   -0.5490   -2.4920 O   0  0  0  0  0
    1.6390   -0.3930   -0.6370 C   0  0  0  0  0
    0.4860   -0.8800   -1.4770 C   0  0  0  0  0
    1.4590   -0.0740    0.6980 C   0  0  0  0  0
    2.5390    0.3680    1.4380 C   0  0  0  0  0
    0.1000   -0.2080    1.3370 C   0  0  0  0  0
    0.1800    0.1790    2.7100 O   0  0  0  0  0
   -1.2970    0.0130    3.3260 P   0  0  0  0  0
   -1.7270   -1.3970    3.2030 O   0  0  0  0  0
   -1.2810    0.4350    4.8800 O   0  0  0  0  0
   -2.3230    0.9580    2.5240 O   0  0  0  0  0
   -0.1820    0.2680   -2.1020 N   0  0  0  0  0
   -1.2890   -0.2710   -2.9020 C   0  0  0  0  0
   -2.5790   -0.2730   -2.1030 C   0  0  0  0  0
   -2.7180   -0.6580   -0.9610 O   0  0  0  0  0
   -3.5450    0.2390   -2.8960 N   0  0  0  0  0
   -3.0500    0.5640   -4.1800 O   0  0  0  0  0
   -1.6160    0.6640   -4.0880 C   0  0  0  0  0
    5.8800   -0.5800   -0.8350 H   0  0  0  0  0
    5.2530    0.5930   -2.0170 H   0  0  0  0  0
    5.8510    1.1540   -0.4370 H   0  0  0  0  0
    2.9800    0.2600   -2.9960 H   0  0  0  0  0
    0.8590   -1.5490   -2.2530 H   0  0  0  0  0
   -0.2220   -1.4140   -0.8460 H   0  0  0  0  0
    2.4050    0.6180    2.4800 H   0  0  0  0  0
   -0.6090    0.4340    0.8180 H   0  0  0  0  0
   -0.2310   -1.2440    1.2710 H   0  0  0  0  0
   -2.1830    0.3210    5.2100 H   0  0  0  0  0
   -2.0080    1.8660    2.6290 H   0  0  0  0  0
   -0.5980    0.8030   -1.3550 H   0  0  0  0  0
   -1.0540   -1.2750   -3.2560 H   0  0  0  0  0
   -4.4660    0.3660   -2.6190 H   0  0  0  0  0
   -1.3120    1.6880   -3.8680 H   0  0  0  0  0
   -1.1440    0.3080   -5.0040 H   0  0  0  0  0
  1  2  2  0  0  0
  1  9  1  0  0  0
  2  3  1  0  0  0
  2  4  1  0  0  0
  3 23  1  0  0  0
  3 24  1  0  0  0
  3 25  1  0  0  0
  4  5  1  0  0  0
  4  6  2  0  0  0
  5 26  1  0  0  0
  6  7  1  0  0  0
  6  8  1  0  0  0
  7 16  1  0  0  0
  7 27  1  0  0  0
  7 28  1  0  0  0
  8  9  2  0  0  0
  8 10  1  0  0  0
  9 29  1  0  0  0
 10 11  1  0  0  0
 10 30  1  0  0  0
 10 31  1  0  0  0
 11 12  1  0  0  0
 12 13  2  0  0  0
 12 14  1  0  0  0
 12 15  1  0  0  0
 14 32  1  0  0  0
 15 33  1  0  0  0
 16 17  1  0  0  0
 16 34  1  0  0  0
 17 18  1  0  0  0
 17 22  1  0  0  0
 17 35  1  0  0  0
 18 19  2  0  0  0
 18 20  1  0  0  0
 20 21  1  0  0  0
 20 36  1  0  0  0
 21 22  1  0  0  0
 22 37  1  0  0  0
 22 38  1  0  0  0
M  END
$$$$
