DDE
  CCTOOLS-1004241126

 45 45  0  0  1  0  0  0  0  0999 V2000
   -0.6020    5.1380   -4.2460 N   0  0  0  0  0
   -0.9920    3.7530   -4.1560 C   0  0  0  0  0
   -0.3050    2.9200   -5.2280 C   0  0  0  0  0
   -0.0550    3.3500   -6.3490 O   0  0  0  0  0
   -2.5340    3.6150   -4.2370 C   0  0  0  0  0
   -3.0250    2.2360   -4.0910 C   0  0  0  0  0
   -3.1840    1.4310   -5.1910 N   0  0  0  0  0
   -3.3780    1.5760   -2.9380 C   0  0  0  0  0
   -3.6210    0.3190   -4.6930 C   0  0  0  0  0
   -3.7630    0.3320   -3.3500 N   0  0  0  0  0
   -1.5850    0.4960   -7.9670 N   0  0  0  0  0
   -1.8610   -0.8350   -7.7410 C   0  0  0  0  0
   -2.3210   -1.5880   -8.5960 O   0  0  0  0  0
   -1.5330   -1.2770   -6.3250 C   0  0  0  0  0
   -0.4370   -2.2860   -6.3530 N   0  3  0  0  0
   -0.0900   -2.7450   -4.9330 C   0  0  0  0  0
   -0.8570   -3.5150   -7.1680 C   0  0  0  0  0
    0.8250   -1.6940   -6.9900 C   0  0  0  0  0
   -2.7730   -1.8760   -5.6490 C   0  0  0  0  0
   -3.9640   -0.9220   -5.4790 C   0  0  0  0  0
    0.0200    1.6610   -4.8490 O   0  0  0  0  0
   -0.1640    5.4690   -5.0890 H   0  0  0  0  0
   -0.5850    5.6950   -3.4080 H   0  0  0  0  0
   -0.6240    3.3940   -3.1880 H   0  0  0  0  0
   -2.9890    4.2640   -3.4600 H   0  0  0  0  0
   -2.8760    4.0730   -5.1910 H   0  0  0  0  0
   -3.3910    1.8650   -1.8970 H   0  0  0  0  0
   -4.0860   -0.4200   -2.7560 H   0  0  0  0  0
   -1.2030    1.1010   -7.2470 H   0  0  0  0  0
   -1.7570    0.9180   -8.8730 H   0  0  0  0  0
   -1.1400   -0.4200   -5.7690 H   0  0  0  0  0
    0.8650   -3.2720   -4.9760 H   0  0  0  0  0
   -0.0200   -1.8570   -4.3020 H   0  0  0  0  0
   -0.8890   -3.4070   -4.5910 H   0  0  0  0  0
    0.0510   -4.0310   -7.4860 H   0  0  0  0  0
   -1.4640   -4.1520   -6.5220 H   0  0  0  0  0
   -1.4310   -3.1650   -8.0280 H   0  0  0  0  0
    1.3820   -1.1740   -6.2080 H   0  0  0  0  0
    1.4080   -2.5180   -7.4050 H   0  0  0  0  0
    0.5110   -1.0020   -7.7740 H   0  0  0  0  0
   -3.1130   -2.7450   -6.2290 H   0  0  0  0  0
   -2.4910   -2.2740   -4.6650 H   0  0  0  0  0
   -4.7650   -1.4580   -4.9520 H   0  0  0  0  0
   -4.3850   -0.6580   -6.4560 H   0  0  0  0  0
    0.4670    1.1260   -5.5370 H   0  0  0  0  0
  1  2  1  0  0  0
  1 22  1  0  0  0
  1 23  1  0  0  0
  2  3  1  0  0  0
  2  5  1  0  0  0
  2 24  1  0  0  0
  3  4  2  0  0  0
  3 21  1  0  0  0
  5  6  1  0  0  0
  5 25  1  0  0  0
  5 26  1  0  0  0
  6  7  1  0  0  0
  6  8  2  0  0  0
  7  9  2  0  0  0
  8 10  1  0  0  0
  8 27  1  0  0  0
  9 10  1  0  0  0
  9 20  1  0  0  0
 10 28  1  0  0  0
 11 12  1  0  0  0
 11 29  1  0  0  0
 11 30  1  0  0  0
 12 13  2  0  0  0
 12 14  1  0  0  0
 14 15  1  0  0  0
 14 19  1  0  0  0
 14 31  1  0  0  0
 15 16  1  0  0  0
 15 17  1  0  0  0
 15 18  1  0  0  0
 16 32  1  0  0  0
 16 33  1  0  0  0
 16 34  1  0  0  0
 17 35  1  0  0  0
 17 36  1  0  0  0
 17 37  1  0  0  0
 18 38  1  0  0  0
 18 39  1  0  0  0
 18 40  1  0  0  0
 19 20  1  0  0  0
 19 41  1  0  0  0
 19 42  1  0  0  0
 20 43  1  0  0  0
 20 44  1  0  0  0
 21 45  1  0  0  0
M  CHG  1  15   1
M  END
$$$$
