DDT
  CCTOOLS-0919241043

 78 82  0  0  1  0  0  0  0  0999 V2000
    0.9460   -0.3330    7.8820 C   0  0  0  0  0
   -0.3910   -0.5290    8.1520 C   0  0  0  0  0
   -1.2930   -0.7950    7.1260 C   0  0  0  0  0
   -0.8810   -0.8690    5.8300 C   0  0  0  0  0
    0.4730   -0.6760    5.5120 C   0  0  0  0  0
    0.9260   -0.7460    4.1830 C   0  0  0  0  0
    2.2470   -0.5580    3.9110 C   0  0  0  0  0
    3.1570   -0.2850    4.9300 C   0  0  0  0  0
    2.7530   -0.2050    6.2270 C   0  0  0  0  0
    1.4000   -0.3990    6.5470 C   0  0  0  0  0
    1.3830    1.1680    9.5630 C   0  0  0  0  0
    1.6770   -1.1450    9.9020 C   0  0  0  0  0
    1.8400   -0.0680    8.9160 N   0  0  0  0  0
   -0.8000    1.5090    2.4300 C   0  0  0  0  0
   -0.9540    2.4420    3.6040 C   0  0  0  0  0
   -1.6260    2.0310    1.2520 C   0  0  0  0  0
   -1.4720    1.0990    0.0780 C   0  0  0  0  0
   -2.3450    0.0380   -0.0780 C   0  0  0  0  0
   -2.2060   -0.8180   -1.1530 C   0  0  0  0  0
   -1.1900   -0.6130   -2.0750 C   0  0  0  0  0
   -0.3160    0.4520   -1.9150 C   0  0  0  0  0
   -0.4620    1.3080   -0.8410 C   0  0  0  0  0
   -0.2050   -1.0900    2.8780 S   0  0  0  0  0
    0.5540   -1.0250    1.6790 O   0  0  0  0  0
   -0.9640   -2.2110    3.3110 O   0  0  0  0  0
   -1.2730    0.1730    2.8030 N   0  0  0  0  0
   -0.1920    3.3690    3.7420 O   0  0  0  0  0
   -1.9380    2.2420    4.4950 O   0  0  0  0  0
   -1.0520   -1.4540   -3.1340 O   0  0  0  0  0
   -1.8930   -0.8800   -4.2650 S   0  0  0  0  0
   -2.1750   -1.9720   -5.1290 O   0  0  0  0  0
   -2.8650   -0.0520   -3.6410 O   0  0  0  0  0
    1.7230    0.0680   -7.8650 C   0  0  0  0  0
    1.7670   -1.2910   -8.0840 C   0  0  0  0  0
    0.9540   -2.1560   -7.3570 C   0  0  0  0  0
    0.0940   -1.6860   -6.4130 C   0  0  0  0  0
    0.0210   -0.3060   -6.1550 C   0  0  0  0  0
   -0.8600    0.2070   -5.1890 C   0  0  0  0  0
   -0.9090    1.5500   -4.9680 C   0  0  0  0  0
   -0.1000    2.4250   -5.6890 C   0  0  0  0  0
    0.7620    1.9620   -6.6360 C   0  0  0  0  0
    0.8400    0.5840   -6.8910 C   0  0  0  0  0
    3.9270    0.5270   -8.3190 C   0  0  0  0  0
    2.2940    0.6340  -10.0160 C   0  0  0  0  0
    2.5400    0.9250   -8.5980 N   0  0  0  0  0
   -0.7430   -0.4760    9.1710 H   0  0  0  0  0
   -2.3360   -0.9450    7.3610 H   0  0  0  0  0
   -1.5950   -1.0770    5.0470 H   0  0  0  0  0
    2.5930   -0.6160    2.8890 H   0  0  0  0  0
    4.1990   -0.1360    4.6870 H   0  0  0  0  0
    3.4690    0.0070    7.0070 H   0  0  0  0  0
    2.0550    1.4190   10.3840 H   0  0  0  0  0
    1.3810    1.9790    8.8340 H   0  0  0  0  0
    0.3740    1.0250    9.9500 H   0  0  0  0  0
    2.0050   -2.0890    9.4670 H   0  0  0  0  0
    2.2770   -0.9240   10.7850 H   0  0  0  0  0
    0.6270   -1.2210   10.1870 H   0  0  0  0  0
    0.2490    1.4560    2.1430 H   0  0  0  0  0
   -2.6760    2.0840    1.5390 H   0  0  0  0  0
   -1.2740    3.0250    0.9750 H   0  0  0  0  0
   -3.1360   -0.1200    0.6390 H   0  0  0  0  0
   -2.8880   -1.6460   -1.2750 H   0  0  0  0  0
    0.4760    0.6130   -2.6310 H   0  0  0  0  0
    0.2170    2.1380   -0.7160 H   0  0  0  0  0
   -2.2100    0.0290    3.0050 H   0  0  0  0  0
   -2.0360    2.8410    5.2480 H   0  0  0  0  0
    2.4410   -1.6900   -8.8270 H   0  0  0  0  0
    1.0060   -3.2180   -7.5460 H   0  0  0  0  0
   -0.5290   -2.3730   -5.8600 H   0  0  0  0  0
   -1.5850    1.9420   -4.2230 H   0  0  0  0  0
   -0.1580    3.4860   -5.4950 H   0  0  0  0  0
    1.3840    2.6520   -7.1880 H   0  0  0  0  0
    4.6080    1.1720   -8.8730 H   0  0  0  0  0
    4.1240    0.6210   -7.2520 H   0  0  0  0  0
    4.0760   -0.5070   -8.6270 H   0  0  0  0  0
    2.9140    1.2830  -10.6340 H   0  0  0  0  0
    2.5410   -0.4070  -10.2210 H   0  0  0  0  0
    1.2430    0.8090  -10.2460 H   0  0  0  0  0
  1  2  2  0  0  0
  1 10  1  0  0  0
  1 13  1  0  0  0
  2  3  1  0  0  0
  2 46  1  0  0  0
  3  4  2  0  0  0
  3 47  1  0  0  0
  4  5  1  0  0  0
  4 48  1  0  0  0
  5  6  2  0  0  0
  5 10  1  0  0  0
  6  7  1  0  0  0
  6 23  1  0  0  0
  7  8  2  0  0  0
  7 49  1  0  0  0
  8  9  1  0  0  0
  8 50  1  0  0  0
  9 10  2  0  0  0
  9 51  1  0  0  0
 11 13  1  0  0  0
 11 52  1  0  0  0
 11 53  1  0  0  0
 11 54  1  0  0  0
 12 13  1  0  0  0
 12 55  1  0  0  0
 12 56  1  0  0  0
 12 57  1  0  0  0
 14 15  1  0  0  0
 14 16  1  0  0  0
 14 26  1  0  0  0
 14 58  1  0  0  0
 15 27  2  0  0  0
 15 28  1  0  0  0
 16 17  1  0  0  0
 16 59  1  0  0  0
 16 60  1  0  0  0
 17 18  2  0  0  0
 17 22  1  0  0  0
 18 19  1  0  0  0
 18 61  1  0  0  0
 19 20  2  0  0  0
 19 62  1  0  0  0
 20 21  1  0  0  0
 20 29  1  0  0  0
 21 22  2  0  0  0
 21 63  1  0  0  0
 22 64  1  0  0  0
 23 24  2  0  0  0
 23 25  2  0  0  0
 23 26  1  0  0  0
 26 65  1  0  0  0
 28 66  1  0  0  0
 29 30  1  0  0  0
 30 31  2  0  0  0
 30 32  2  0  0  0
 30 38  1  0  0  0
 33 34  2  0  0  0
 33 42  1  0  0  0
 33 45  1  0  0  0
 34 35  1  0  0  0
 34 67  1  0  0  0
 35 36  2  0  0  0
 35 68  1  0  0  0
 36 37  1  0  0  0
 36 69  1  0  0  0
 37 38  2  0  0  0
 37 42  1  0  0  0
 38 39  1  0  0  0
 39 40  2  0  0  0
 39 70  1  0  0  0
 40 41  1  0  0  0
 40 71  1  0  0  0
 41 42  2  0  0  0
 41 72  1  0  0  0
 43 45  1  0  0  0
 43 73  1  0  0  0
 43 74  1  0  0  0
 43 75  1  0  0  0
 44 45  1  0  0  0
 44 76  1  0  0  0
 44 77  1  0  0  0
 44 78  1  0  0  0
M  END
$$$$
