DG2
  CCTOOLS-0919241043

 23 22  0  0  1  0  0  0  0  0999 V2000
   -0.6920   -0.7860    0.5780 C   0  0  0  0  0
    0.6300   -0.1360    0.9930 C   0  0  0  0  0
   -1.3840    0.0790   -0.3250 O   0  0  0  0  0
    1.4830   -0.0200   -0.1470 O   0  0  0  0  0
   -0.6890   -2.2500   -1.2680 O   0  0  0  0  0
    0.1420   -3.1090    0.5900 O   0  0  0  0  0
   -2.7730    1.6580    1.2530 O   0  0  0  0  0
   -3.3720    1.4950   -1.3020 O   0  0  0  0  0
   -3.7820   -0.4360    0.2700 O   0  0  0  0  0
   -2.8480    0.6750   -0.0200 P   0  0  0  0  0
   -0.4130   -2.1020   -0.1010 C   0  0  0  0  0
    2.9580    0.6210   -0.0770 P   0  0  0  0  0
    2.8790    1.9780    0.5070 O   0  0  0  0  0
    3.9020   -0.3050    0.8420 O   0  0  0  0  0
    3.5760    0.7100   -1.5610 O   0  0  0  0  0
   -1.3070   -0.9560    1.4610 H   0  0  0  0  0
    0.4340    0.8540    1.4040 H   0  0  0  0  0
    1.1160   -0.7530    1.7490 H   0  0  0  0  0
    0.3020   -3.9350    0.1120 H   0  0  0  0  0
   -2.1780    2.4110    1.1330 H   0  0  0  0  0
   -4.2500    1.8830   -1.1890 H   0  0  0  0  0
    3.9990   -1.2110    0.5180 H   0  0  0  0  0
    4.4650    1.0880   -1.5950 H   0  0  0  0  0
  1 11  1  0  0  0
  1  3  1  0  0  0
  1 16  1  0  0  0
  2  1  1  0  0  0
  2 17  1  0  0  0
  2 18  1  0  0  0
  3 10  1  0  0  0
  4  2  1  0  0  0
  5 11  2  0  0  0
  6 19  1  0  0  0
  7 20  1  0  0  0
  8 21  1  0  0  0
  9 10  2  0  0  0
 10  7  1  0  0  0
 10  8  1  0  0  0
 11  6  1  0  0  0
 12 14  1  0  0  0
 12  4  1  0  0  0
 13 12  2  0  0  0
 14 22  1  0  0  0
 15 12  1  0  0  0
 15 23  1  0  0  0
M  END
$$$$
