DGD
  CCTOOLS-0919241043

162163  0  0  1  0  0  0  0  0999 V2000
   -0.6320    1.8770    2.1480 C   0  0  0  0  0
    0.2430    0.9630    2.9660 C   0  0  0  0  0
    0.5880    1.6410    4.2930 C   0  0  0  0  0
    1.4770    0.7130    5.1240 C   0  0  0  0  0
    1.8220    1.3920    6.4510 C   0  0  0  0  0
    2.7100    0.4640    7.2820 C   0  0  0  0  0
    3.0550    1.1420    8.6100 C   0  0  0  0  0
    3.9440    0.2140    9.4400 C   0  0  0  0  0
    4.2890    0.8920   10.7680 C   0  0  0  0  0
    5.1780   -0.0350   11.5990 C   0  0  0  0  0
    5.5230    0.6420   12.9260 C   0  0  0  0  0
    6.4120   -0.2840   13.7570 C   0  0  0  0  0
    6.7570    0.3930   15.0840 C   0  0  0  0  0
    7.6450   -0.5340   15.9150 C   0  0  0  0  0
    7.9910    0.1430   17.2430 C   0  0  0  0  0
    8.8790   -0.7840   18.0730 C   0  0  0  0  0
    9.2240   -0.1060   19.4010 C   0  0  0  0  0
   10.1130   -1.0340   20.2320 C   0  0  0  0  0
   -0.9470    2.9600    2.5820 O   0  0  0  0  0
   -1.0360    1.3940   -3.2520 C   0  0  0  0  0
    0.2310    1.1010   -4.0110 C   0  0  0  0  0
   -0.0510    1.1460   -5.5140 C   0  0  0  0  0
    1.2360    0.8490   -6.2840 C   0  0  0  0  0
    0.9530    0.8940   -7.7870 C   0  0  0  0  0
    2.2410    0.5960   -8.5580 C   0  0  0  0  0
    1.9580    0.6410  -10.0610 C   0  0  0  0  0
    3.2460    0.3440  -10.8320 C   0  0  0  0  0
    2.9630    0.3890  -12.3350 C   0  0  0  0  0
    4.2510    0.0910  -13.1050 C   0  0  0  0  0
    3.9680    0.1360  -14.6080 C   0  0  0  0  0
    5.2550   -0.1600  -15.3790 C   0  0  0  0  0
    4.9720   -0.1150  -16.8820 C   0  0  0  0  0
    6.2600   -0.4130  -17.6520 C   0  0  0  0  0
    5.9770   -0.3680  -19.1550 C   0  0  0  0  0
    7.2650   -0.6650  -19.9260 C   0  0  0  0  0
    6.9820   -0.6200  -21.4290 C   0  0  0  0  0
    8.2700   -0.9180  -22.1990 C   0  0  0  0  0
   -2.0610    1.6160   -3.8510 O   0  0  0  0  0
   -1.0610    1.4880    0.9370 O   0  0  0  0  0
   -1.9040    2.3690    0.1480 C   0  0  0  0  0
   -2.2490    1.6910   -1.1780 C   0  0  0  0  0
   -1.0270    1.4080   -1.9100 O   0  0  0  0  0
   -2.9930    0.3820   -0.9040 C   0  0  0  0  0
   -2.1630   -0.4830   -0.1280 O   0  0  0  0  0
   -2.9100   -1.6820    0.0920 C   0  0  0  0  0
   -2.0710   -2.6580    0.9190 C   0  0  0  0  0
   -0.8540   -2.9480    0.2280 O   0  0  0  0  0
   -2.8670   -3.9530    1.1210 C   0  0  0  0  0
   -2.1620   -4.8180    2.0140 O   0  0  0  0  0
   -4.2330   -3.6000    1.7190 C   0  0  0  0  0
   -4.0590   -3.0720    3.0360 O   0  0  0  0  0
   -4.9090   -2.5510    0.8330 C   0  0  0  0  0
   -6.9240   -1.2420    0.5750 O   0  0  0  0  0
   -6.2880   -2.2160    1.4050 C   0  0  0  0  0
   -4.1130   -1.3680    0.7910 O   0  0  0  0  0
   -8.2010   -0.9730    1.1580 C   0  0  0  0  0
   -8.9390    0.0650    0.3100 C   0  0  0  0  0
   -9.1410   -0.4490   -1.0070 O   0  0  0  0  0
   -8.0960    1.3420    0.2380 C   0  0  0  0  0
   -8.8350    2.3710   -0.4220 O   0  0  0  0  0
   -7.7590    1.7870    1.6660 C   0  0  0  0  0
   -8.9550    2.1800    2.3410 O   0  0  0  0  0
   -7.1100    0.6190    2.4120 C   0  0  0  0  0
   -8.0210   -0.4750    2.4820 O   0  0  0  0  0
   -6.7390    1.0640    3.8280 C   0  0  0  0  0
   -6.1270   -0.0220    4.5240 O   0  0  0  0  0
    1.1600    0.7510    2.4170 H   0  0  0  0  0
   -0.2860    0.0310    3.1610 H   0  0  0  0  0
   -0.3290    1.8530    4.8420 H   0  0  0  0  0
    1.1180    2.5730    4.0980 H   0  0  0  0  0
    2.3940    0.5010    4.5750 H   0  0  0  0  0
    0.9460   -0.2180    5.3190 H   0  0  0  0  0
    0.9040    1.6030    7.0010 H   0  0  0  0  0
    2.3520    2.3240    6.2560 H   0  0  0  0  0
    3.6280    0.2520    6.7330 H   0  0  0  0  0
    2.1800   -0.4680    7.4780 H   0  0  0  0  0
    2.1380    1.3540    9.1590 H   0  0  0  0  0
    3.5860    2.0740    8.4140 H   0  0  0  0  0
    4.8620    0.0020    8.8910 H   0  0  0  0  0
    3.4140   -0.7170    9.6360 H   0  0  0  0  0
    3.3720    1.1040   11.3170 H   0  0  0  0  0
    4.8190    1.8240   10.5730 H   0  0  0  0  0
    6.0950   -0.2470   11.0500 H   0  0  0  0  0
    4.6480   -0.9670   11.7940 H   0  0  0  0  0
    4.6050    0.8540   13.4750 H   0  0  0  0  0
    6.0530    1.5750   12.7310 H   0  0  0  0  0
    7.3290   -0.4960   13.2080 H   0  0  0  0  0
    5.8820   -1.2170   13.9520 H   0  0  0  0  0
    5.8390    0.6050   15.6330 H   0  0  0  0  0
    7.2870    1.3250   14.8890 H   0  0  0  0  0
    8.5630   -0.7460   15.3660 H   0  0  0  0  0
    7.1150   -1.4660   16.1100 H   0  0  0  0  0
    7.0730    0.3550   17.7920 H   0  0  0  0  0
    8.5210    1.0750   17.0470 H   0  0  0  0  0
    9.7970   -0.9960   17.5240 H   0  0  0  0  0
    8.3490   -1.7160   18.2690 H   0  0  0  0  0
    8.3070    0.1050   19.9500 H   0  0  0  0  0
    9.7540    0.8260   19.2060 H   0  0  0  0  0
   10.3590   -0.5500   21.1770 H   0  0  0  0  0
    9.5830   -1.9660   20.4270 H   0  0  0  0  0
   11.0310   -1.2450   19.6830 H   0  0  0  0  0
    0.9850    1.8480   -3.7610 H   0  0  0  0  0
    0.5970    0.1110   -3.7400 H   0  0  0  0  0
   -0.8050    0.4000   -5.7640 H   0  0  0  0  0
   -0.4160    2.1360   -5.7850 H   0  0  0  0  0
    1.9900    1.5950   -6.0340 H   0  0  0  0  0
    1.6020   -0.1410   -6.0130 H   0  0  0  0  0
    0.1990    0.1470   -8.0380 H   0  0  0  0  0
    0.5880    1.8840   -8.0590 H   0  0  0  0  0
    2.9950    1.3430   -8.3080 H   0  0  0  0  0
    2.6060   -0.3930   -8.2870 H   0  0  0  0  0
    1.2040   -0.1040  -10.3110 H   0  0  0  0  0
    1.5930    1.6320  -10.3320 H   0  0  0  0  0
    4.0000    1.0900  -10.5810 H   0  0  0  0  0
    3.6110   -0.6460  -10.5600 H   0  0  0  0  0
    2.2090   -0.3570  -12.5850 H   0  0  0  0  0
    2.5970    1.3790  -12.6060 H   0  0  0  0  0
    5.0040    0.8380  -12.8550 H   0  0  0  0  0
    4.6160   -0.8980  -12.8340 H   0  0  0  0  0
    3.2140   -0.6090  -14.8580 H   0  0  0  0  0
    3.6020    1.1270  -14.8790 H   0  0  0  0  0
    6.0090    0.5850  -15.1280 H   0  0  0  0  0
    5.6210   -1.1510  -15.1070 H   0  0  0  0  0
    4.2190   -0.8620  -17.1320 H   0  0  0  0  0
    4.6070    0.8740  -17.1530 H   0  0  0  0  0
    7.0140    0.3330  -17.4020 H   0  0  0  0  0
    6.6260   -1.4030  -17.3810 H   0  0  0  0  0
    5.2230   -1.1140  -19.4050 H   0  0  0  0  0
    5.6120    0.6220  -19.4270 H   0  0  0  0  0
    8.0190    0.0800  -19.6760 H   0  0  0  0  0
    7.6300   -1.6560  -19.6540 H   0  0  0  0  0
    6.2280   -1.3670  -21.6790 H   0  0  0  0  0
    6.6170    0.3690  -21.7000 H   0  0  0  0  0
    8.0680   -0.8860  -23.2700 H   0  0  0  0  0
    9.0240   -0.1710  -21.9490 H   0  0  0  0  0
    8.6350   -1.9080  -21.9280 H   0  0  0  0  0
   -2.8220    2.5810    0.6970 H   0  0  0  0  0
   -1.3740    3.3010   -0.0460 H   0  0  0  0  0
   -2.8820    2.3520   -1.7700 H   0  0  0  0  0
   -3.9110    0.5940   -0.3550 H   0  0  0  0  0
   -3.2390   -0.1000   -1.8500 H   0  0  0  0  0
   -3.1560   -2.1370   -0.8660 H   0  0  0  0  0
   -1.8430   -2.2150    1.8890 H   0  0  0  0  0
   -0.3870   -2.1080    0.1230 H   0  0  0  0  0
   -3.0050   -4.4520    0.1620 H   0  0  0  0  0
   -1.3110   -5.0140    1.5990 H   0  0  0  0  0
   -4.8540   -4.4940    1.7640 H   0  0  0  0  0
   -3.6310   -3.7630    3.5590 H   0  0  0  0  0
   -5.0220   -2.9480   -0.1750 H   0  0  0  0  0
   -6.8970   -3.1200    1.4370 H   0  0  0  0  0
   -6.1760   -1.8170    2.4130 H   0  0  0  0  0
   -8.7840   -1.8930    1.1930 H   0  0  0  0  0
   -9.9030    0.2890    0.7660 H   0  0  0  0  0
   -9.6740   -1.2500   -0.9150 H   0  0  0  0  0
   -7.1760    1.1430   -0.3090 H   0  0  0  0  0
   -9.0260    2.0500   -1.3140 H   0  0  0  0  0
   -7.0660    2.6280    1.6320 H   0  0  0  0  0
   -9.3310    2.9160    1.8390 H   0  0  0  0  0
   -6.2090    0.3070    1.8830 H   0  0  0  0  0
   -6.0430    1.9010    3.7750 H   0  0  0  0  0
   -7.6400    1.3740    4.3580 H   0  0  0  0  0
   -5.9090    0.3000    5.4100 H   0  0  0  0  0
  1  2  1  0  0  0
  1 19  2  0  0  0
  1 39  1  0  0  0
  2  3  1  0  0  0
  2 67  1  0  0  0
  2 68  1  0  0  0
  3  4  1  0  0  0
  3 69  1  0  0  0
  3 70  1  0  0  0
  4  5  1  0  0  0
  4 71  1  0  0  0
  4 72  1  0  0  0
  5  6  1  0  0  0
  5 73  1  0  0  0
  5 74  1  0  0  0
  6  7  1  0  0  0
  6 75  1  0  0  0
  6 76  1  0  0  0
  7  8  1  0  0  0
  7 77  1  0  0  0
  7 78  1  0  0  0
  8  9  1  0  0  0
  8 79  1  0  0  0
  8 80  1  0  0  0
  9 10  1  0  0  0
  9 81  1  0  0  0
  9 82  1  0  0  0
 10 11  1  0  0  0
 10 83  1  0  0  0
 10 84  1  0  0  0
 11 12  1  0  0  0
 11 85  1  0  0  0
 11 86  1  0  0  0
 12 13  1  0  0  0
 12 87  1  0  0  0
 12 88  1  0  0  0
 13 14  1  0  0  0
 13 89  1  0  0  0
 13 90  1  0  0  0
 14 15  1  0  0  0
 14 91  1  0  0  0
 14 92  1  0  0  0
 15 16  1  0  0  0
 15 93  1  0  0  0
 15 94  1  0  0  0
 16 17  1  0  0  0
 16 95  1  0  0  0
 16 96  1  0  0  0
 17 18  1  0  0  0
 17 97  1  0  0  0
 17 98  1  0  0  0
 18 99  1  0  0  0
 18100  1  0  0  0
 18101  1  0  0  0
 20 21  1  0  0  0
 20 38  2  0  0  0
 20 42  1  0  0  0
 21 22  1  0  0  0
 21102  1  0  0  0
 21103  1  0  0  0
 22 23  1  0  0  0
 22104  1  0  0  0
 22105  1  0  0  0
 23 24  1  0  0  0
 23106  1  0  0  0
 23107  1  0  0  0
 24 25  1  0  0  0
 24108  1  0  0  0
 24109  1  0  0  0
 25 26  1  0  0  0
 25110  1  0  0  0
 25111  1  0  0  0
 26 27  1  0  0  0
 26112  1  0  0  0
 26113  1  0  0  0
 27 28  1  0  0  0
 27114  1  0  0  0
 27115  1  0  0  0
 28 29  1  0  0  0
 28116  1  0  0  0
 28117  1  0  0  0
 29 30  1  0  0  0
 29118  1  0  0  0
 29119  1  0  0  0
 30 31  1  0  0  0
 30120  1  0  0  0
 30121  1  0  0  0
 31 32  1  0  0  0
 31122  1  0  0  0
 31123  1  0  0  0
 32 33  1  0  0  0
 32124  1  0  0  0
 32125  1  0  0  0
 33 34  1  0  0  0
 33126  1  0  0  0
 33127  1  0  0  0
 34 35  1  0  0  0
 34128  1  0  0  0
 34129  1  0  0  0
 35 36  1  0  0  0
 35130  1  0  0  0
 35131  1  0  0  0
 36 37  1  0  0  0
 36132  1  0  0  0
 36133  1  0  0  0
 37134  1  0  0  0
 37135  1  0  0  0
 37136  1  0  0  0
 39 40  1  0  0  0
 40 41  1  0  0  0
 40137  1  0  0  0
 40138  1  0  0  0
 41 42  1  0  0  0
 41 43  1  0  0  0
 41139  1  0  0  0
 43 44  1  0  0  0
 43140  1  0  0  0
 43141  1  0  0  0
 44 45  1  0  0  0
 45 46  1  0  0  0
 45 55  1  0  0  0
 45142  1  0  0  0
 46 47  1  0  0  0
 46 48  1  0  0  0
 46143  1  0  0  0
 47144  1  0  0  0
 48 49  1  0  0  0
 48 50  1  0  0  0
 48145  1  0  0  0
 49146  1  0  0  0
 50 51  1  0  0  0
 50 52  1  0  0  0
 50147  1  0  0  0
 51148  1  0  0  0
 52 54  1  0  0  0
 52 55  1  0  0  0
 52149  1  0  0  0
 53 54  1  0  0  0
 53 56  1  0  0  0
 54150  1  0  0  0
 54151  1  0  0  0
 56 57  1  0  0  0
 56 64  1  0  0  0
 56152  1  0  0  0
 57 58  1  0  0  0
 57 59  1  0  0  0
 57153  1  0  0  0
 58154  1  0  0  0
 59 60  1  0  0  0
 59 61  1  0  0  0
 59155  1  0  0  0
 60156  1  0  0  0
 61 62  1  0  0  0
 61 63  1  0  0  0
 61157  1  0  0  0
 62158  1  0  0  0
 63 64  1  0  0  0
 63 65  1  0  0  0
 63159  1  0  0  0
 65 66  1  0  0  0
 65160  1  0  0  0
 65161  1  0  0  0
 66162  1  0  0  0
M  END
$$$$
