DGL
  CCTOOLS-0919241043

 19 18  0  0  1  0  0  0  0  0999 V2000
   -1.1980    1.8610   -0.1220 N   0  0  0  0  0
   -1.1300    0.5100    0.4510 C   0  0  0  0  0
   -2.3520   -0.2720    0.0400 C   0  0  0  0  0
   -2.9990    0.0790   -0.9180 O   0  0  0  0  0
    0.1250   -0.1990   -0.0620 C   0  0  0  0  0
    1.3680    0.5250    0.4600 C   0  0  0  0  0
    2.6050   -0.1730   -0.0450 C   0  0  0  0  0
    2.5020   -1.1490   -0.7500 O   0  0  0  0  0
    3.8200    0.2900    0.2890 O   0  0  0  0  0
   -2.7200   -1.3570    0.7380 O   0  0  0  0  0
   -1.2360    1.8260   -1.1290 H   0  0  0  0  0
   -1.9840    2.3730    0.2520 H   0  0  0  0  0
   -1.0910    0.5770    1.5380 H   0  0  0  0  0
    0.1300   -1.2300    0.2910 H   0  0  0  0  0
    0.1290   -0.1880   -1.1520 H   0  0  0  0  0
    1.3630    1.5560    0.1070 H   0  0  0  0  0
    1.3640    0.5140    1.5500 H   0  0  0  0  0
    4.5830   -0.1910   -0.0590 H   0  0  0  0  0
   -3.5100   -1.8260    0.4360 H   0  0  0  0  0
  1  2  1  0  0  0
  1 11  1  0  0  0
  1 12  1  0  0  0
  2  3  1  0  0  0
  2  5  1  0  0  0
  2 13  1  0  0  0
  3  4  2  0  0  0
  3 10  1  0  0  0
  5  6  1  0  0  0
  5 14  1  0  0  0
  5 15  1  0  0  0
  6  7  1  0  0  0
  6 16  1  0  0  0
  6 17  1  0  0  0
  7  8  2  0  0  0
  7  9  1  0  0  0
  9 18  1  0  0  0
 10 19  1  0  0  0
M  END
$$$$
