DHI
  CCTOOLS-0919241043

 21 21  0  0  1  0  0  0  0  0999 V2000
   -0.8500    1.4690    0.7820 N   0  0  0  0  0
   -1.0640    0.0630    0.4140 C   0  0  0  0  0
   -2.5080   -0.1430    0.0380 C   0  0  0  0  0
   -3.0360   -1.3770    0.0540 O   0  0  0  0  0
   -0.1710   -0.2930   -0.7770 C   0  0  0  0  0
    1.2760   -0.2050   -0.3640 C   0  0  0  0  0
    2.0810    0.8540   -0.5360 N   0  3  0  0  0
    1.9880   -1.1770    0.2370 C   0  0  0  0  0
    3.2630    0.5770   -0.0570 C   0  0  0  0  0
    3.2490   -0.6810    0.4320 N   0  0  0  0  0
   -3.1910    0.8020   -0.2780 O   0  0  0  0  0
   -1.0930    2.0210   -0.0270 H   0  0  0  0  0
   -1.5280    1.6880    1.4970 H   0  0  0  0  0
   -0.8130   -0.5760    1.2600 H   0  0  0  0  0
   -0.3930   -1.3080   -1.1070 H   0  0  0  0  0
   -0.3590    0.4040   -1.5930 H   0  0  0  0  0
    1.8240    1.6940   -0.9470 H   0  0  0  0  0
    1.6320   -2.1590    0.5130 H   0  0  0  0  0
    4.1140    1.2430   -0.0560 H   0  0  0  0  0
    3.9930   -1.1470    0.8450 H   0  0  0  0  0
    0.0000    0.0000    0.0000 H   0  0  0  0  0
  1  2  1  0  0  0
  1 12  1  0  0  0
  1 13  1  0  0  0
  2  3  1  0  0  0
  2  5  1  0  0  0
  2 14  1  0  0  0
  3  4  2  0  0  0
  3 11  1  0  0  0
  5  6  1  0  0  0
  5 15  1  0  0  0
  5 16  1  0  0  0
  6  7  1  0  0  0
  6  8  2  0  0  0
  7  9  2  0  0  0
  7 17  1  0  0  0
  8 10  1  0  0  0
  8 18  1  0  0  0
  9 10  1  0  0  0
  9 19  1  0  0  0
 10 20  1  0  0  0
 11 21  1  0  0  0
M  CHG  1   7   1
M  END
$$$$
