DIB
  CCTOOLS-1004241127

 21 20  0  0  0  0  0  0  0  0999 V2000
    0.2880    0.0850   -3.2970 N   0  0  0  0  0
   -0.4760   -0.3060   -2.1060 C   0  0  0  0  0
    0.1920    0.2710   -0.8570 C   0  0  0  0  0
   -0.6040   -0.1360    0.3830 C   0  0  0  0  0
    0.0380    0.4180    1.5820 N   0  0  0  0  0
   -0.7710   -0.0080    2.7310 C   0  0  0  0  0
    1.3390   -0.2510    1.7110 C   0  0  0  0  0
   -0.1870   -0.3150   -4.0910 H   0  0  0  0  0
    0.2000    1.0870   -3.3810 H   0  0  0  0  0
   -0.5040   -1.3930   -2.0330 H   0  0  0  0  0
   -1.4930    0.0790   -2.1840 H   0  0  0  0  0
    0.2200    1.3580   -0.9300 H   0  0  0  0  0
    1.2090   -0.1130   -0.7790 H   0  0  0  0  0
   -0.6320   -1.2230    0.4560 H   0  0  0  0  0
   -1.6200    0.2480    0.3050 H   0  0  0  0  0
   -0.3320    0.3800    3.6490 H   0  0  0  0  0
   -1.7850    0.3750    2.6220 H   0  0  0  0  0
   -0.7970   -1.0970    2.7730 H   0  0  0  0  0
    1.9800    0.0340    0.8770 H   0  0  0  0  0
    1.8090    0.0450    2.6490 H   0  0  0  0  0
    1.1940   -1.3310    1.7040 H   0  0  0  0  0
  1  2  1  0  0  0
  1  8  1  0  0  0
  1  9  1  0  0  0
  2  3  1  0  0  0
  2 10  1  0  0  0
  2 11  1  0  0  0
  3  4  1  0  0  0
  3 12  1  0  0  0
  3 13  1  0  0  0
  4  5  1  0  0  0
  4 14  1  0  0  0
  4 15  1  0  0  0
  5  6  1  0  0  0
  5  7  1  0  0  0
  6 16  1  0  0  0
  6 17  1  0  0  0
  6 18  1  0  0  0
  7 19  1  0  0  0
  7 20  1  0  0  0
  7 21  1  0  0  0
M  END
$$$$
