DIP
  CCTOOLS-1004241127

 34 33  0  0  0  0  0  0  0  0999 V2000
    0.5380   -0.0200    0.0000 N   0  0  0  0  0
   -0.3380    0.0030    1.1780 C   0  0  0  0  0
    0.5140   -0.0190    2.4480 C   0  0  0  0  0
   -0.3980    0.0050    3.6760 C   0  0  0  0  0
    0.4540   -0.0170    4.9460 C   0  0  0  0  0
   -0.4580    0.0060    6.1740 C   0  0  0  0  0
   -0.3380    0.0030   -1.1780 C   0  0  0  0  0
    0.5140   -0.0190   -2.4480 C   0  0  0  0  0
   -0.3980    0.0050   -3.6760 C   0  0  0  0  0
    0.4540   -0.0170   -4.9460 C   0  0  0  0  0
   -0.4580    0.0060   -6.1740 C   0  0  0  0  0
    1.0470    0.8500    0.0000 H   0  0  0  0  0
   -0.9900   -0.8690    1.1630 H   0  0  0  0  0
   -0.9430    0.9100    1.1630 H   0  0  0  0  0
    1.1670    0.8530    2.4640 H   0  0  0  0  0
    1.1190   -0.9260    2.4640 H   0  0  0  0  0
   -1.0510   -0.8670    3.6610 H   0  0  0  0  0
   -1.0030    0.9110    3.6610 H   0  0  0  0  0
    1.1060    0.8540    4.9610 H   0  0  0  0  0
    1.0590   -0.9240    4.9610 H   0  0  0  0  0
    0.1480   -0.0090    7.0790 H   0  0  0  0  0
   -1.0630    0.9130    6.1580 H   0  0  0  0  0
   -1.1110   -0.8660    6.1580 H   0  0  0  0  0
   -0.9900   -0.8690   -1.1630 H   0  0  0  0  0
   -0.9430    0.9100   -1.1630 H   0  0  0  0  0
    1.1670    0.8530   -2.4640 H   0  0  0  0  0
    1.1190   -0.9260   -2.4640 H   0  0  0  0  0
   -1.0510   -0.8670   -3.6610 H   0  0  0  0  0
   -1.0030    0.9110   -3.6610 H   0  0  0  0  0
    1.1060    0.8540   -4.9610 H   0  0  0  0  0
    1.0590   -0.9240   -4.9610 H   0  0  0  0  0
    0.1480   -0.0090   -7.0790 H   0  0  0  0  0
   -1.1110   -0.8660   -6.1580 H   0  0  0  0  0
   -1.0630    0.9130   -6.1580 H   0  0  0  0  0
  1  2  1  0  0  0
  1  7  1  0  0  0
  1 12  1  0  0  0
  2  3  1  0  0  0
  2 13  1  0  0  0
  2 14  1  0  0  0
  3  4  1  0  0  0
  3 15  1  0  0  0
  3 16  1  0  0  0
  4  5  1  0  0  0
  4 17  1  0  0  0
  4 18  1  0  0  0
  5  6  1  0  0  0
  5 19  1  0  0  0
  5 20  1  0  0  0
  6 21  1  0  0  0
  6 22  1  0  0  0
  6 23  1  0  0  0
  7  8  1  0  0  0
  7 24  1  0  0  0
  7 25  1  0  0  0
  8  9  1  0  0  0
  8 26  1  0  0  0
  8 27  1  0  0  0
  9 10  1  0  0  0
  9 28  1  0  0  0
  9 29  1  0  0  0
 10 11  1  0  0  0
 10 30  1  0  0  0
 10 31  1  0  0  0
 11 32  1  0  0  0
 11 33  1  0  0  0
 11 34  1  0  0  0
M  END
$$$$
