DIX
  CCTOOLS-1004241127

 29 29  0  0  0  0  0  0  0  0999 V2000
    0.5160   -0.2280    3.5010 N   0  0  0  0  0
   -0.0240    0.3770    4.7250 C   0  0  0  0  0
   -0.3680    0.1800    2.4020 C   0  0  0  0  0
    0.1390   -0.4180    1.0890 C   0  0  0  0  0
   -0.7810    0.0070   -0.0550 C   0  0  0  0  0
   -0.2730   -0.5910   -1.3680 C   0  0  0  0  0
   -1.1900   -0.1710   -2.5300 C   0  0  0  0  0
    1.1300   -0.0390   -1.6930 C   0  0  0  0  0
    1.1260    0.1250   -3.2330 C   0  0  0  0  0
   -0.3120    0.6210   -3.5200 C   0  0  0  0  0
    1.4100    0.2080    3.3320 H   0  0  0  0  0
    0.6000    0.1010    5.5740 H   0  0  0  0  0
   -0.0350    1.4620    4.6200 H   0  0  0  0  0
   -1.0400    0.0170    4.8900 H   0  0  0  0  0
   -1.3790   -0.1760    2.5970 H   0  0  0  0  0
   -0.3740    1.2680    2.3260 H   0  0  0  0  0
    1.1510   -0.0610    0.8940 H   0  0  0  0  0
    0.1460   -1.5060    1.1640 H   0  0  0  0  0
   -1.7920   -0.3490    0.1390 H   0  0  0  0  0
   -0.7870    1.0940   -0.1310 H   0  0  0  0  0
   -0.2390   -1.6780   -1.2940 H   0  0  0  0  0
   -1.6010   -1.0530   -3.0190 H   0  0  0  0  0
   -1.9970    0.4600   -2.1580 H   0  0  0  0  0
    1.2830    0.9230   -1.2060 H   0  0  0  0  0
    1.8990   -0.7490   -1.3880 H   0  0  0  0  0
    1.3100   -0.8290   -3.7250 H   0  0  0  0  0
    1.8600    0.8690   -3.5440 H   0  0  0  0  0
   -0.5960    0.3950   -4.5470 H   0  0  0  0  0
   -0.3920    1.6910   -3.3280 H   0  0  0  0  0
  1  2  1  0  0  0
  1  3  1  0  0  0
  1 11  1  0  0  0
  2 12  1  0  0  0
  2 13  1  0  0  0
  2 14  1  0  0  0
  3  4  1  0  0  0
  3 15  1  0  0  0
  3 16  1  0  0  0
  4  5  1  0  0  0
  4 17  1  0  0  0
  4 18  1  0  0  0
  5  6  1  0  0  0
  5 19  1  0  0  0
  5 20  1  0  0  0
  6  7  1  0  0  0
  6  8  1  0  0  0
  6 21  1  0  0  0
  7 10  1  0  0  0
  7 22  1  0  0  0
  7 23  1  0  0  0
  8  9  1  0  0  0
  8 24  1  0  0  0
  8 25  1  0  0  0
  9 10  1  0  0  0
  9 26  1  0  0  0
  9 27  1  0  0  0
 10 28  1  0  0  0
 10 29  1  0  0  0
M  END
$$$$
