DIY
  CCTOOLS-1004241127

 29 29  0  0  1  0  0  0  0  0999 V2000
   -1.4650   -0.2270   -2.0540 N   0  0  0  0  0
   -0.5710    0.2900   -3.0950 C   0  0  0  0  0
   -0.9780    0.2790   -0.7670 C   0  0  0  0  0
    0.8270   -0.3050   -2.9190 C   0  0  0  0  0
    1.3840    0.1110   -1.5550 C   0  0  0  0  0
    0.3970   -0.3150   -0.4630 C   0  0  0  0  0
    0.8860    0.1920    0.8940 C   0  0  0  0  0
   -0.1010   -0.2320    1.9820 C   0  0  0  0  0
    0.3870    0.2750    3.3400 C   0  0  0  0  0
   -0.5990   -0.1490    4.4290 C   0  0  0  0  0
   -2.3670    0.1970   -2.2100 H   0  0  0  0  0
   -0.5140    1.3760   -3.0170 H   0  0  0  0  0
   -0.9600    0.0170   -4.0760 H   0  0  0  0  0
   -1.6770   -0.0000    0.0200 H   0  0  0  0  0
   -0.9000    1.3650   -0.8110 H   0  0  0  0  0
    1.4820    0.0630   -3.7080 H   0  0  0  0  0
    0.7680   -1.3920   -2.9720 H   0  0  0  0  0
    1.5120    1.1930   -1.5280 H   0  0  0  0  0
    2.3450   -0.3760   -1.3890 H   0  0  0  0  0
    0.3270   -1.4030   -0.4410 H   0  0  0  0  0
    0.9560    1.2790    0.8710 H   0  0  0  0  0
    1.8670   -0.2310    1.1080 H   0  0  0  0  0
   -0.1710   -1.3200    2.0050 H   0  0  0  0  0
   -1.0820    0.1900    1.7680 H   0  0  0  0  0
    0.4580    1.3630    3.3180 H   0  0  0  0  0
    1.3690   -0.1470    3.5550 H   0  0  0  0  0
   -0.2510    0.2120    5.3970 H   0  0  0  0  0
   -1.5810    0.2740    4.2150 H   0  0  0  0  0
   -0.6700   -1.2360    4.4520 H   0  0  0  0  0
  1  2  1  0  0  0
  1  3  1  0  0  0
  1 11  1  0  0  0
  2  4  1  0  0  0
  2 12  1  0  0  0
  2 13  1  0  0  0
  3  6  1  0  0  0
  3 14  1  0  0  0
  3 15  1  0  0  0
  4  5  1  0  0  0
  4 16  1  0  0  0
  4 17  1  0  0  0
  5  6  1  0  0  0
  5 18  1  0  0  0
  5 19  1  0  0  0
  6  7  1  0  0  0
  6 20  1  0  0  0
  7  8  1  0  0  0
  7 21  1  0  0  0
  7 22  1  0  0  0
  8  9  1  0  0  0
  8 23  1  0  0  0
  8 24  1  0  0  0
  9 10  1  0  0  0
  9 25  1  0  0  0
  9 26  1  0  0  0
 10 27  1  0  0  0
 10 28  1  0  0  0
 10 29  1  0  0  0
M  END
$$$$
