DLS
  CCTOOLS-1004241127

 34 33  0  0  1  0  0  0  0  0999 V2000
    3.0190    0.7820   -3.1890 C   0  0  0  0  0
    1.6860   -1.1400   -3.4930 O   0  0  0  0  0
    1.7650   -0.0320   -3.0070 C   0  0  0  0  0
    0.7300    0.4690   -2.3040 N   0  0  0  0  0
   -0.4880   -0.3230   -2.1270 C   0  0  0  0  0
   -1.4430   -0.0340   -3.2570 C   0  0  0  0  0
   -2.2100   -0.8890   -3.6320 O   0  0  0  0  0
   -1.1470    0.0440   -0.7960 C   0  0  0  0  0
   -0.1780   -0.2480    0.3500 C   0  0  0  0  0
   -0.8360    0.1190    1.6810 C   0  0  0  0  0
    0.1320   -0.1730    2.8280 C   0  0  0  0  0
   -0.4980    0.1780    4.1020 N   0  0  0  0  0
   -0.4750    0.3660    6.5690 C   0  0  0  0  0
    1.3000   -0.4430    5.2420 O   0  0  0  0  0
    0.1730    0.0040    5.2580 C   0  0  0  0  0
   -1.4410    1.1710   -3.8460 O   0  0  0  0  0
    3.7380    0.2160   -3.7800 H   0  0  0  0  0
    2.7770    1.7120   -3.7040 H   0  0  0  0  0
    3.4490    1.0100   -2.2130 H   0  0  0  0  0
    0.7930    1.3560   -1.9150 H   0  0  0  0  0
   -0.2350   -1.3830   -2.1270 H   0  0  0  0  0
   -2.0540   -0.5450   -0.6650 H   0  0  0  0  0
   -1.4000    1.1040   -0.7960 H   0  0  0  0  0
    0.7290    0.3410    0.2190 H   0  0  0  0  0
    0.0740   -1.3080    0.3500 H   0  0  0  0  0
   -1.7440   -0.4700    1.8130 H   0  0  0  0  0
   -1.0890    1.1790    1.6810 H   0  0  0  0  0
    1.0390    0.4160    2.6960 H   0  0  0  0  0
    0.3850   -1.2330    2.8280 H   0  0  0  0  0
   -1.3990    0.5360    4.1150 H   0  0  0  0  0
    0.2150    0.1570    7.3860 H   0  0  0  0  0
   -0.7280    1.4260    6.5690 H   0  0  0  0  0
   -1.3820   -0.2230    6.7000 H   0  0  0  0  0
   -2.0540    1.3560   -4.5710 H   0  0  0  0  0
  1  3  1  0  0  0
  1 17  1  0  0  0
  1 18  1  0  0  0
  1 19  1  0  0  0
  2  3  2  0  0  0
  3  4  1  0  0  0
  4  5  1  0  0  0
  4 20  1  0  0  0
  5  6  1  0  0  0
  5  8  1  0  0  0
  5 21  1  0  0  0
  6  7  2  0  0  0
  6 16  1  0  0  0
  8  9  1  0  0  0
  8 22  1  0  0  0
  8 23  1  0  0  0
  9 10  1  0  0  0
  9 24  1  0  0  0
  9 25  1  0  0  0
 10 11  1  0  0  0
 10 26  1  0  0  0
 10 27  1  0  0  0
 11 12  1  0  0  0
 11 28  1  0  0  0
 11 29  1  0  0  0
 12 15  1  0  0  0
 12 30  1  0  0  0
 13 15  1  0  0  0
 13 31  1  0  0  0
 13 32  1  0  0  0
 13 33  1  0  0  0
 14 15  2  0  0  0
 16 34  1  0  0  0
M  END
$$$$
