DMB
  CCTOOLS-0919241044

 34 35  0  0  0  0  0  0  0  0999 V2000
    0.6560    0.0000   -2.1690 C   0  0  0  0  0
   -0.2700   -0.0050   -3.2320 C   0  0  0  0  0
    0.1920   -0.0020   -4.5470 C   0  0  0  0  0
    1.5480   -0.0050   -4.8020 C   0  0  0  0  0
    2.4590   -0.0050   -3.7580 C   0  0  0  0  0
    2.0230   -0.0020   -2.4490 C   0  0  0  0  0
    0.6340    0.0050    1.3830 C   0  0  0  0  0
    1.5570    0.0060    2.4360 C   0  0  0  0  0
    1.1110    0.0090    3.7390 C   0  0  0  0  0
   -0.2520    0.0070    4.0090 C   0  0  0  0  0
   -1.1720    0.0120    2.9670 C   0  0  0  0  0
   -0.7360    0.0090    1.6610 C   0  0  0  0  0
   -1.7190   -0.0020   -2.9540 C   0  0  0  0  0
    2.1030    0.0090    4.8730 C   0  0  0  0  0
   -2.6490    0.0150    3.2670 C   0  0  0  0  0
    0.2190    0.0020   -0.8760 N   0  0  0  0  0
    1.0710    0.0030    0.0920 N   0  0  0  0  0
   -2.1170   -0.0060   -1.8060 O   0  0  0  0  0
   -2.6000    0.0040   -3.9730 O   0  0  0  0  0
   -0.6860    0.0100    5.2950 O   0  0  0  0  0
   -0.5110   -0.0010   -5.3670 H   0  0  0  0  0
    1.9020   -0.0070   -5.8220 H   0  0  0  0  0
    3.5180   -0.0070   -3.9710 H   0  0  0  0  0
    2.7400   -0.0020   -1.6410 H   0  0  0  0  0
    2.6160    0.0040    2.2270 H   0  0  0  0  0
   -1.4520    0.0090    0.8520 H   0  0  0  0  0
    2.3440    1.0360    5.1450 H   0  0  0  0  0
    1.6710   -0.5020    5.7330 H   0  0  0  0  0
    3.0110   -0.5070    4.5620 H   0  0  0  0  0
   -3.0070   -1.0100    3.3420 H   0  0  0  0  0
   -2.8260    0.5310    4.2110 H   0  0  0  0  0
   -3.1810    0.5290    2.4670 H   0  0  0  0  0
   -3.5500    0.0060   -3.7910 H   0  0  0  0  0
   -0.7810   -0.9150    5.5600 H   0  0  0  0  0
  1  2  1  0  0  0
  1  6  2  0  0  0
  1 16  1  0  0  0
  2  3  2  0  0  0
  2 13  1  0  0  0
  3  4  1  0  0  0
  3 21  1  0  0  0
  4  5  2  0  0  0
  4 22  1  0  0  0
  5  6  1  0  0  0
  5 23  1  0  0  0
  6 24  1  0  0  0
  7  8  1  0  0  0
  7 12  2  0  0  0
  7 17  1  0  0  0
  8  9  2  0  0  0
  8 25  1  0  0  0
  9 10  1  0  0  0
  9 14  1  0  0  0
 10 11  2  0  0  0
 10 20  1  0  0  0
 11 12  1  0  0  0
 11 15  1  0  0  0
 12 26  1  0  0  0
 13 18  2  0  0  0
 13 19  1  0  0  0
 14 27  1  0  0  0
 14 28  1  0  0  0
 14 29  1  0  0  0
 15 30  1  0  0  0
 15 31  1  0  0  0
 15 32  1  0  0  0
 16 17  2  0  0  0
 19 33  1  0  0  0
 20 34  1  0  0  0
M  END
$$$$
