DMU
  CCTOOLS-0919241044

 75 76  0  0  1  0  0  0  0  0999 V2000
   -0.6800   -2.3380    0.6700 C   0  0  0  0  0
   -2.0880   -2.1730    0.0900 C   0  0  0  0  0
   -2.4770   -0.6920    0.1350 C   0  0  0  0  0
   -1.4340    0.1240   -0.6320 C   0  0  0  0  0
   -0.1430   -0.0980   -0.0600 O   0  0  0  0  0
    0.2940   -1.4580   -0.1170 C   0  0  0  0  0
   -3.7600   -0.5170   -0.4700 O   0  0  0  0  0
    1.5990   -1.5630    0.4540 O   0  0  0  0  0
    2.6110   -0.8650   -0.2750 C   0  0  0  0  0
    3.9600   -1.0460    0.4230 C   0  0  0  0  0
    5.0430   -0.2990   -0.3570 C   0  0  0  0  0
    6.3920   -0.4800    0.3410 C   0  0  0  0  0
    7.4750    0.2670   -0.4400 C   0  0  0  0  0
    8.8240    0.0860    0.2590 C   0  0  0  0  0
    9.9070    0.8340   -0.5220 C   0  0  0  0  0
   11.2560    0.6520    0.1760 C   0  0  0  0  0
   12.3390    1.4000   -0.6050 C   0  0  0  0  0
   13.6880    1.2190    0.0940 C   0  0  0  0  0
   -0.2790   -3.7060    0.5680 O   0  0  0  0  0
   -3.0170   -2.9350    0.8650 O   0  0  0  0  0
   -1.7820    1.6110   -0.5410 C   0  0  0  0  0
   -0.8640    2.3650   -1.3350 O   0  0  0  0  0
   -6.1550   -0.8260   -0.3880 C   0  0  0  0  0
   -6.3970    0.5070   -1.1030 C   0  0  0  0  0
   -6.4350    1.6310   -0.0630 C   0  0  0  0  0
   -5.1250    1.6270    0.7300 C   0  0  0  0  0
   -4.9460    0.3490    1.3440 O   0  0  0  0  0
   -4.8570   -0.7370    0.4190 C   0  0  0  0  0
   -6.5870    2.8880   -0.7250 O   0  0  0  0  0
   -6.0450   -1.8730   -1.3550 O   0  0  0  0  0
   -7.6440    0.4570   -1.7980 O   0  0  0  0  0
   -5.1790    2.7080    1.8100 C   0  0  0  0  0
   -3.9150    2.7830    2.4740 O   0  0  0  0  0
   -0.6800   -2.0360    1.7170 H   0  0  0  0  0
   -2.1010   -2.5240   -0.9420 H   0  0  0  0  0
   -2.5140   -0.3570    1.1710 H   0  0  0  0  0
   -1.4260   -0.1840   -1.6770 H   0  0  0  0  0
    0.3240   -1.7870   -1.1560 H   0  0  0  0  0
    2.6700   -1.2640   -1.2880 H   0  0  0  0  0
    2.3630    0.1950   -0.3160 H   0  0  0  0  0
    3.9010   -0.6470    1.4360 H   0  0  0  0  0
    4.2080   -2.1070    0.4640 H   0  0  0  0  0
    5.1020   -0.6980   -1.3700 H   0  0  0  0  0
    4.7950    0.7620   -0.3990 H   0  0  0  0  0
    6.3340   -0.0810    1.3540 H   0  0  0  0  0
    6.6410   -1.5410    0.3820 H   0  0  0  0  0
    7.5340   -0.1320   -1.4520 H   0  0  0  0  0
    7.2270    1.3280   -0.4810 H   0  0  0  0  0
    8.7660    0.4850    1.2710 H   0  0  0  0  0
    9.0730   -0.9740    0.3000 H   0  0  0  0  0
    9.9660    0.4350   -1.5350 H   0  0  0  0  0
    9.6590    1.8940   -0.5630 H   0  0  0  0  0
   11.1980    1.0510    1.1890 H   0  0  0  0  0
   11.5050   -0.4080    0.2170 H   0  0  0  0  0
   12.3980    1.0010   -1.6170 H   0  0  0  0  0
   12.0910    2.4600   -0.6460 H   0  0  0  0  0
   13.6300    1.6180    1.1070 H   0  0  0  0  0
   13.9370    0.1580    0.1350 H   0  0  0  0  0
   14.4600    1.7510   -0.4620 H   0  0  0  0  0
    0.6050   -3.8830    0.9180 H   0  0  0  0  0
   -2.8270   -3.8830    0.8860 H   0  0  0  0  0
   -2.7960    1.7700   -0.9090 H   0  0  0  0  0
   -1.7170    1.9370    0.4970 H   0  0  0  0  0
   -1.0260    3.3190   -1.3240 H   0  0  0  0  0
   -6.9870   -1.0360    0.2830 H   0  0  0  0  0
   -5.5900    0.6920   -1.8110 H   0  0  0  0  0
   -7.2720    1.4720    0.6160 H   0  0  0  0  0
   -4.2920    1.8260    0.0570 H   0  0  0  0  0
   -4.7010   -1.6680    0.9640 H   0  0  0  0  0
   -7.3950    2.9600   -1.2520 H   0  0  0  0  0
   -5.8890   -2.7470   -0.9720 H   0  0  0  0  0
   -7.6930   -0.2380   -2.4690 H   0  0  0  0  0
   -5.4050    3.6710    1.3500 H   0  0  0  0  0
   -5.9550    2.4610    2.5340 H   0  0  0  0  0
   -3.8770    3.4500    3.1730 H   0  0  0  0  0
  1  2  1  0  0  0
  1 34  1  0  0  0
  2 20  1  0  0  0
  2 35  1  0  0  0
  3  7  1  0  0  0
  3  2  1  0  0  0
  3 36  1  0  0  0
  4  3  1  0  0  0
  4 37  1  0  0  0
  5  6  1  0  0  0
  5  4  1  0  0  0
  6  8  1  0  0  0
  6  1  1  0  0  0
  6 38  1  0  0  0
  9 10  1  0  0  0
  9  8  1  0  0  0
  9 39  1  0  0  0
  9 40  1  0  0  0
 10 41  1  0  0  0
 10 42  1  0  0  0
 11 12  1  0  0  0
 11 10  1  0  0  0
 11 43  1  0  0  0
 11 44  1  0  0  0
 12 45  1  0  0  0
 12 46  1  0  0  0
 13 12  1  0  0  0
 13 47  1  0  0  0
 13 48  1  0  0  0
 14 13  1  0  0  0
 14 49  1  0  0  0
 14 50  1  0  0  0
 15 14  1  0  0  0
 15 51  1  0  0  0
 15 52  1  0  0  0
 16 15  1  0  0  0
 16 53  1  0  0  0
 16 54  1  0  0  0
 17 16  1  0  0  0
 17 18  1  0  0  0
 17 55  1  0  0  0
 17 56  1  0  0  0
 18 57  1  0  0  0
 18 58  1  0  0  0
 18 59  1  0  0  0
 19  1  1  0  0  0
 19 60  1  0  0  0
 20 61  1  0  0  0
 21  4  1  0  0  0
 21 62  1  0  0  0
 21 63  1  0  0  0
 22 21  1  0  0  0
 22 64  1  0  0  0
 23 30  1  0  0  0
 23 65  1  0  0  0
 24 23  1  0  0  0
 24 25  1  0  0  0
 24 66  1  0  0  0
 25 26  1  0  0  0
 25 29  1  0  0  0
 25 67  1  0  0  0
 26 68  1  0  0  0
 27 28  1  0  0  0
 27 26  1  0  0  0
 28 23  1  0  0  0
 28  7  1  0  0  0
 28 69  1  0  0  0
 29 70  1  0  0  0
 30 71  1  0  0  0
 31 24  1  0  0  0
 31 72  1  0  0  0
 32 26  1  0  0  0
 32 33  1  0  0  0
 32 73  1  0  0  0
 32 74  1  0  0  0
 33 75  1  0  0  0
M  END
$$$$
