DP8
  CCTOOLS-0919241044

 38 39  0  0  0  0  0  0  0  0999 V2000
   -6.5060    1.0190   -0.6630 C   0  0  0  0  0
   -5.3490    0.1940   -0.2900 N   0  0  0  0  0
   -2.5000    0.5010   -0.1060 O   0  0  0  0  0
    6.0090    0.0150    0.0340 C   0  0  0  0  0
    2.6580   -1.3620   -0.2980 O   0  0  0  0  0
    5.7170    1.3390    0.3100 C   0  0  0  0  0
    4.4010    1.7580    0.3820 C   0  0  0  0  0
    3.3750    0.8560    0.1790 C   0  0  0  0  0
    3.6660   -0.4730   -0.0980 C   0  0  0  0  0
    4.9870   -0.8910   -0.1690 C   0  0  0  0  0
    1.3800   -0.9000   -0.2500 C   0  0  0  0  0
    0.8930   -0.1000   -1.2730 C   0  0  0  0  0
   -0.4050    0.3690   -1.2250 C   0  0  0  0  0
   -1.2220    0.0390   -0.1540 C   0  0  0  0  0
   -0.7360   -0.7620    0.8690 C   0  0  0  0  0
    0.5610   -1.2350    0.8180 C   0  0  0  0  0
   -3.2850    0.1210    1.0260 C   0  0  0  0  0
   -4.6830    0.7310    0.9040 C   0  0  0  0  0
   -5.7440   -1.2060   -0.0890 C   0  0  0  0  0
   -6.1890    2.0540   -0.7900 H   0  0  0  0  0
   -6.9290    0.6510   -1.5980 H   0  0  0  0  0
   -7.2600    0.9640    0.1220 H   0  0  0  0  0
    7.0370   -0.3090   -0.0260 H   0  0  0  0  0
    6.5180    2.0460    0.4690 H   0  0  0  0  0
    4.1760    2.7920    0.5980 H   0  0  0  0  0
    2.3480    1.1840    0.2370 H   0  0  0  0  0
    5.2150   -1.9240   -0.3850 H   0  0  0  0  0
    1.5300    0.1580   -2.1070 H   0  0  0  0  0
   -0.7840    0.9930   -2.0210 H   0  0  0  0  0
   -1.3720   -1.0190    1.7030 H   0  0  0  0  0
    0.9390   -1.8620    1.6120 H   0  0  0  0  0
   -3.3650   -0.9650    1.0650 H   0  0  0  0  0
   -2.8090    0.4840    1.9360 H   0  0  0  0  0
   -4.6010    1.8140    0.8190 H   0  0  0  0  0
   -5.2680    0.4790    1.7890 H   0  0  0  0  0
   -6.2340   -1.5790   -0.9880 H   0  0  0  0  0
   -4.8580   -1.8070    0.1170 H   0  0  0  0  0
   -6.4320   -1.2720    0.7540 H   0  0  0  0  0
  1  2  1  0  0  0
  1 20  1  0  0  0
  1 21  1  0  0  0
  1 22  1  0  0  0
  2 18  1  0  0  0
  2 19  1  0  0  0
  3 14  1  0  0  0
  3 17  1  0  0  0
  4  6  2  0  0  0
  4 10  1  0  0  0
  4 23  1  0  0  0
  5  9  1  0  0  0
  5 11  1  0  0  0
  6  7  1  0  0  0
  6 24  1  0  0  0
  7  8  2  0  0  0
  7 25  1  0  0  0
  8  9  1  0  0  0
  8 26  1  0  0  0
  9 10  2  0  0  0
 10 27  1  0  0  0
 11 12  2  0  0  0
 11 16  1  0  0  0
 12 13  1  0  0  0
 12 28  1  0  0  0
 13 14  2  0  0  0
 13 29  1  0  0  0
 14 15  1  0  0  0
 15 16  2  0  0  0
 15 30  1  0  0  0
 16 31  1  0  0  0
 17 18  1  0  0  0
 17 32  1  0  0  0
 17 33  1  0  0  0
 18 34  1  0  0  0
 18 35  1  0  0  0
 19 36  1  0  0  0
 19 37  1  0  0  0
 19 38  1  0  0  0
M  END
$$$$
