DPN
  CCTOOLS-1004241127

 23 23  0  0  1  0  0  0  0  0999 V2000
   -1.0740    1.4470    0.8240 N   0  0  0  0  0
   -1.2890    0.0540    0.4110 C   0  0  0  0  0
   -2.7400   -0.1470    0.0570 C   0  0  0  0  0
   -3.4340    0.8050   -0.2130 O   0  0  0  0  0
   -3.2630   -1.3830    0.0410 O   0  0  0  0  0
   -0.4190   -0.2570   -0.8090 C   0  0  0  0  0
    1.0350   -0.1760   -0.4220 C   0  0  0  0  0
    1.6900   -1.3000    0.0420 C   0  0  0  0  0
    1.7150    1.0230   -0.5370 C   0  0  0  0  0
    3.0240   -1.2260    0.3970 C   0  0  0  0  0
    3.0490    1.0970   -0.1830 C   0  0  0  0  0
    3.7030   -0.0270    0.2870 C   0  0  0  0  0
   -1.3170    2.0860    0.0820 H   0  0  0  0  0
   -1.5890    1.6580    1.6660 H   0  0  0  0  0
   -1.0190   -0.6140    1.2290 H   0  0  0  0  0
   -4.1980   -1.4620   -0.1920 H   0  0  0  0  0
   -0.6440   -1.2600   -1.1700 H   0  0  0  0  0
   -0.6270    0.4680   -1.5970 H   0  0  0  0  0
    1.1600   -2.2370    0.1280 H   0  0  0  0  0
    1.2040    1.9000   -0.9050 H   0  0  0  0  0
    3.5360   -2.1050    0.7610 H   0  0  0  0  0
    3.5810    2.0330   -0.2730 H   0  0  0  0  0
    4.7450    0.0310    0.5640 H   0  0  0  0  0
  1  2  1  0  0  0
  1 13  1  0  0  0
  1 14  1  0  0  0
  2  3  1  0  0  0
  2  6  1  0  0  0
  2 15  1  0  0  0
  3  4  2  0  0  0
  3  5  1  0  0  0
  5 16  1  0  0  0
  6  7  1  0  0  0
  6 17  1  0  0  0
  6 18  1  0  0  0
  7  8  2  0  0  0
  7  9  1  0  0  0
  8 10  1  0  0  0
  8 19  1  0  0  0
  9 11  2  0  0  0
  9 20  1  0  0  0
 10 12  2  0  0  0
 10 21  1  0  0  0
 11 12  1  0  0  0
 11 22  1  0  0  0
 12 23  1  0  0  0
M  END
$$$$
