DPR
  CCTOOLS-0919241044

 17 17  0  0  1  0  0  0  0  0999 V2000
    0.8140    0.9740    0.6700 N   0  0  0  0  0
   -0.0140   -0.2440    0.5980 C   0  0  0  0  0
    0.7280   -1.2470   -0.3100 C   0  0  0  0  0
    2.1990   -0.7590   -0.2420 C   0  0  0  0  0
    2.0160    0.7770   -0.1680 C   0  0  0  0  0
   -1.3600    0.0860    0.0060 C   0  0  0  0  0
   -1.5090    1.1050   -0.6260 O   0  0  0  0  0
   -2.3930   -0.7530    0.1800 O   0  0  0  0  0
    0.2930    1.7840    0.3700 H   0  0  0  0  0
   -0.1380   -0.6670    1.5950 H   0  0  0  0  0
    0.6390   -2.2600    0.0830 H   0  0  0  0  0
    0.3510   -1.1940   -1.3310 H   0  0  0  0  0
    2.6950   -1.1370    0.6530 H   0  0  0  0  0
    2.7470   -1.0450   -1.1400 H   0  0  0  0  0
    1.8550    1.1880   -1.1650 H   0  0  0  0  0
    2.8850    1.2410    0.2990 H   0  0  0  0  0
   -3.2370   -0.5000   -0.2190 H   0  0  0  0  0
  1  2  1  0  0  0
  1  5  1  0  0  0
  1  9  1  0  0  0
  2  3  1  0  0  0
  2  6  1  0  0  0
  2 10  1  0  0  0
  3  4  1  0  0  0
  3 11  1  0  0  0
  3 12  1  0  0  0
  4  5  1  0  0  0
  4 13  1  0  0  0
  4 14  1  0  0  0
  5 15  1  0  0  0
  5 16  1  0  0  0
  6  7  2  0  0  0
  6  8  1  0  0  0
  8 17  1  0  0  0
M  END
$$$$
