DR9
  CCTOOLS-0919241027

126125  0  0  1  0  0  0  0  0999 V2000
  -16.4980    4.2910    5.0150 C   0  0  0  0  0
  -15.4370    3.4410    4.3130 C   0  0  0  0  0
  -15.0710    4.0860    2.9750 C   0  0  0  0  0
  -14.0100    3.2370    2.2720 C   0  0  0  0  0
  -13.6450    3.8820    0.9340 C   0  0  0  0  0
  -12.5840    3.0330    0.2310 C   0  0  0  0  0
  -12.2180    3.6780   -1.1070 C   0  0  0  0  0
  -11.1570    2.8280   -1.8100 C   0  0  0  0  0
  -10.7970    3.4640   -3.1280 C   0  0  0  0  0
   -9.5420    3.7020   -3.4190 C   0  0  0  0  0
   -8.4490    3.1910   -2.5170 C   0  0  0  0  0
   -7.4460    2.3800   -3.3400 C   0  0  0  0  0
   -6.3360    1.8600   -2.4240 C   0  0  0  0  0
   -5.3340    1.0490   -3.2470 C   0  0  0  0  0
   -4.2240    0.5300   -2.3310 C   0  0  0  0  0
   -3.2210   -0.2820   -3.1540 C   0  0  0  0  0
   -2.1110   -0.8010   -2.2380 C   0  0  0  0  0
   -1.1240   -1.6000   -3.0480 C   0  0  0  0  0
   -1.2910   -1.7400   -4.2370 O   0  0  0  0  0
   -0.0590   -2.1560   -2.4500 O   0  0  0  0  0
    0.8930   -2.9260   -3.2310 C   0  0  0  0  0
    2.0030   -3.4460   -2.3150 C   0  0  0  0  0
    1.3830   -4.2330   -1.1590 C   0  0  0  0  0
    0.4240   -3.4160   -0.4850 O   0  0  0  0  0
   -0.1840   -4.3030    0.7130 P   0  0  0  0  0
   -0.7190   -5.5690    0.1650 O   0  0  0  0  0
    0.9750   -4.6270    1.7820 O   0  0  0  0  0
   -1.3690   -3.4870    1.4360 O   0  0  0  0  0
   -1.9440   -4.3670    2.4050 C   0  0  0  0  0
   -3.0830   -3.6490    3.1320 C   0  0  0  0  0
   -2.5540   -2.5540    3.8820 O   0  0  0  0  0
   -3.7780   -4.6280    4.0800 C   0  0  0  0  0
   -4.9130   -3.9920    4.6730 O   0  0  0  0  0
    2.7580   -2.3240   -1.7860 O   0  0  0  0  0
    4.0580   -2.4720   -1.4870 C   0  0  0  0  0
    4.6000   -3.5390   -1.6570 O   0  0  0  0  0
    4.8430   -1.3080   -0.9380 C   0  0  0  0  0
    6.2880   -1.7410   -0.6840 C   0  0  0  0  0
    7.0840   -0.5590   -0.1270 C   0  0  0  0  0
    8.5290   -0.9920    0.1280 C   0  0  0  0  0
    9.3250    0.1900    0.6850 C   0  0  0  0  0
   10.7700   -0.2430    0.9390 C   0  0  0  0  0
   11.5660    0.9390    1.4960 C   0  0  0  0  0
   12.9900    0.5120    1.7470 C   0  0  0  0  0
   13.9800    1.2090    1.2460 C   0  0  0  0  0
   13.7070    2.5250    0.5670 C   0  0  0  0  0
   14.5760    3.6150    1.1980 C   0  0  0  0  0
   14.2990    4.9520    0.5080 C   0  0  0  0  0
   15.1680    6.0420    1.1390 C   0  0  0  0  0
   14.8910    7.3790    0.4490 C   0  0  0  0  0
   15.7600    8.4680    1.0800 C   0  0  0  0  0
  -16.1040    5.2920    5.1900 H   0  0  0  0  0
  -17.3870    4.3540    4.3880 H   0  0  0  0  0
  -16.7580    3.8310    5.9690 H   0  0  0  0  0
  -14.5480    3.3780    4.9410 H   0  0  0  0  0
  -15.8300    2.4400    4.1380 H   0  0  0  0  0
  -15.9600    4.1500    2.3470 H   0  0  0  0  0
  -14.6780    5.0880    3.1490 H   0  0  0  0  0
  -13.1210    3.1740    2.9000 H   0  0  0  0  0
  -14.4030    2.2360    2.0970 H   0  0  0  0  0
  -14.5340    3.9450    0.3060 H   0  0  0  0  0
  -13.2510    4.8830    1.1080 H   0  0  0  0  0
  -11.6950    2.9700    0.8590 H   0  0  0  0  0
  -12.9770    2.0310    0.0560 H   0  0  0  0  0
  -13.1070    3.7410   -1.7350 H   0  0  0  0  0
  -11.8250    4.6790   -0.9330 H   0  0  0  0  0
  -10.2680    2.7650   -1.1820 H   0  0  0  0  0
  -11.5500    1.8270   -1.9850 H   0  0  0  0  0
  -11.5740    3.7220   -3.8330 H   0  0  0  0  0
   -9.2920    4.2660   -4.3060 H   0  0  0  0  0
   -7.9390    4.0340   -2.0510 H   0  0  0  0  0
   -8.8830    2.5560   -1.7440 H   0  0  0  0  0
   -7.9570    1.5370   -3.8060 H   0  0  0  0  0
   -7.0130    3.0140   -4.1130 H   0  0  0  0  0
   -5.8260    2.7030   -1.9580 H   0  0  0  0  0
   -6.7700    1.2260   -1.6510 H   0  0  0  0  0
   -5.8440    0.2060   -3.7130 H   0  0  0  0  0
   -4.9000    1.6840   -4.0200 H   0  0  0  0  0
   -3.7130    1.3730   -1.8650 H   0  0  0  0  0
   -4.6580   -0.1050   -1.5580 H   0  0  0  0  0
   -3.7310   -1.1240   -3.6200 H   0  0  0  0  0
   -2.7870    0.3530   -3.9270 H   0  0  0  0  0
   -1.6010    0.0420   -1.7720 H   0  0  0  0  0
   -2.5450   -1.4350   -1.4650 H   0  0  0  0  0
    0.3830   -3.7690   -3.6970 H   0  0  0  0  0
    1.3270   -2.2920   -4.0040 H   0  0  0  0  0
    2.6680   -4.0960   -2.8830 H   0  0  0  0  0
    0.8910   -5.1240   -1.5490 H   0  0  0  0  0
    2.1660   -4.5270   -0.4590 H   0  0  0  0  0
    1.2950   -3.7770    2.1130 H   0  0  0  0  0
   -2.3330   -5.2530    1.9050 H   0  0  0  0  0
   -1.1810   -4.6610    3.1260 H   0  0  0  0  0
   -3.8020   -3.2760    2.4030 H   0  0  0  0  0
   -1.9240   -2.9260    4.5140 H   0  0  0  0  0
   -4.1040   -5.5050    3.5220 H   0  0  0  0  0
   -3.0830   -4.9320    4.8630 H   0  0  0  0  0
   -5.3220   -4.6410    5.2610 H   0  0  0  0  0
    4.8300   -0.4900   -1.6580 H   0  0  0  0  0
    4.3930   -0.9750   -0.0020 H   0  0  0  0  0
    6.3000   -2.5590    0.0360 H   0  0  0  0  0
    6.7370   -2.0730   -1.6190 H   0  0  0  0  0
    7.0710    0.2590   -0.8470 H   0  0  0  0  0
    6.6340   -0.2270    0.8090 H   0  0  0  0  0
    8.5420   -1.8100    0.8480 H   0  0  0  0  0
    8.9790   -1.3250   -0.8080 H   0  0  0  0  0
    9.3120    1.0080   -0.0350 H   0  0  0  0  0
    8.8750    0.5220    1.6200 H   0  0  0  0  0
   10.7830   -1.0620    1.6590 H   0  0  0  0  0
   11.2200   -0.5760    0.0030 H   0  0  0  0  0
   11.5540    1.7570    0.7760 H   0  0  0  0  0
   11.1170    1.2710    2.4320 H   0  0  0  0  0
   13.1940   -0.3680    2.3390 H   0  0  0  0  0
   14.9920    0.8390    1.3210 H   0  0  0  0  0
   13.9420    2.4420   -0.4950 H   0  0  0  0  0
   12.6550    2.7850    0.6860 H   0  0  0  0  0
   14.3410    3.6980    2.2590 H   0  0  0  0  0
   15.6280    3.3560    1.0780 H   0  0  0  0  0
   14.5340    4.8690   -0.5530 H   0  0  0  0  0
   13.2470    5.2120    0.6270 H   0  0  0  0  0
   14.9320    6.1250    2.2000 H   0  0  0  0  0
   16.2200    5.7820    1.0190 H   0  0  0  0  0
   15.1260    7.2960   -0.6120 H   0  0  0  0  0
   13.8390    7.6380    0.5680 H   0  0  0  0  0
   15.5240    8.5520    2.1410 H   0  0  0  0  0
   16.8110    8.2090    0.9600 H   0  0  0  0  0
   15.5620    9.4210    0.5880 H   0  0  0  0  0
  1  2  1  0  0  0
  1 52  1  0  0  0
  1 53  1  0  0  0
  1 54  1  0  0  0
  2  3  1  0  0  0
  2 55  1  0  0  0
  2 56  1  0  0  0
  3  4  1  0  0  0
  3 57  1  0  0  0
  3 58  1  0  0  0
  4  5  1  0  0  0
  4 59  1  0  0  0
  4 60  1  0  0  0
  5  6  1  0  0  0
  5 61  1  0  0  0
  5 62  1  0  0  0
  6  7  1  0  0  0
  6 63  1  0  0  0
  6 64  1  0  0  0
  7  8  1  0  0  0
  7 65  1  0  0  0
  7 66  1  0  0  0
  8  9  1  0  0  0
  8 67  1  0  0  0
  8 68  1  0  0  0
  9 10  2  0  0  0
  9 69  1  0  0  0
 10 11  1  0  0  0
 10 70  1  0  0  0
 11 12  1  0  0  0
 11 71  1  0  0  0
 11 72  1  0  0  0
 12 13  1  0  0  0
 12 73  1  0  0  0
 12 74  1  0  0  0
 13 14  1  0  0  0
 13 75  1  0  0  0
 13 76  1  0  0  0
 14 15  1  0  0  0
 14 77  1  0  0  0
 14 78  1  0  0  0
 15 16  1  0  0  0
 15 79  1  0  0  0
 15 80  1  0  0  0
 16 17  1  0  0  0
 16 81  1  0  0  0
 16 82  1  0  0  0
 17 18  1  0  0  0
 17 83  1  0  0  0
 17 84  1  0  0  0
 18 19  2  0  0  0
 18 20  1  0  0  0
 20 21  1  0  0  0
 21 22  1  0  0  0
 21 85  1  0  0  0
 21 86  1  0  0  0
 22 23  1  0  0  0
 22 34  1  0  0  0
 22 87  1  0  0  0
 23 24  1  0  0  0
 23 88  1  0  0  0
 23 89  1  0  0  0
 24 25  1  0  0  0
 25 26  2  0  0  0
 25 27  1  0  0  0
 25 28  1  0  0  0
 27 90  1  0  0  0
 28 29  1  0  0  0
 29 30  1  0  0  0
 29 91  1  0  0  0
 29 92  1  0  0  0
 30 31  1  0  0  0
 30 32  1  0  0  0
 30 93  1  0  0  0
 31 94  1  0  0  0
 32 33  1  0  0  0
 32 95  1  0  0  0
 32 96  1  0  0  0
 33 97  1  0  0  0
 34 35  1  0  0  0
 35 36  2  0  0  0
 35 37  1  0  0  0
 37 38  1  0  0  0
 37 98  1  0  0  0
 37 99  1  0  0  0
 38 39  1  0  0  0
 38100  1  0  0  0
 38101  1  0  0  0
 39 40  1  0  0  0
 39102  1  0  0  0
 39103  1  0  0  0
 40 41  1  0  0  0
 40104  1  0  0  0
 40105  1  0  0  0
 41 42  1  0  0  0
 41106  1  0  0  0
 41107  1  0  0  0
 42 43  1  0  0  0
 42108  1  0  0  0
 42109  1  0  0  0
 43 44  1  0  0  0
 43110  1  0  0  0
 43111  1  0  0  0
 44 45  2  0  0  0
 44112  1  0  0  0
 45 46  1  0  0  0
 45113  1  0  0  0
 46 47  1  0  0  0
 46114  1  0  0  0
 46115  1  0  0  0
 47 48  1  0  0  0
 47116  1  0  0  0
 47117  1  0  0  0
 48 49  1  0  0  0
 48118  1  0  0  0
 48119  1  0  0  0
 49 50  1  0  0  0
 49120  1  0  0  0
 49121  1  0  0  0
 50 51  1  0  0  0
 50122  1  0  0  0
 50123  1  0  0  0
 51124  1  0  0  0
 51125  1  0  0  0
 51126  1  0  0  0
M  END
$$$$
