DRH
  CCTOOLS-0919241027

 69 71  0  0  1  0  0  0  0  0999 V2000
  -13.7860   -2.3330    8.7780 C   0  0  0  0  0
  -12.5090   -1.8040    8.1350 C   0  0  0  0  0
  -12.5900   -0.3360    7.6830 C   0  0  0  0  0
  -12.8750    0.5680    8.8790 C   0  0  0  0  0
  -14.1890    0.8780    9.0200 O   0  0  0  0  0
  -12.0180    0.9860    9.6490 O   0  0  0  0  0
  -13.6030   -0.0960    6.5630 C   0  0  0  0  0
  -11.3010    0.0440    7.2040 O   0  0  0  0  0
  -10.8180   -0.6290    6.1240 C   0  0  0  0  0
  -11.0820   -0.1620    4.8370 C   0  0  0  0  0
  -10.5850   -0.8510    3.7300 C   0  0  0  0  0
  -10.0570   -1.7840    6.3050 C   0  0  0  0  0
   -9.5610   -2.4730    5.1990 C   0  0  0  0  0
   -9.8310   -1.9970    3.9250 C   0  0  0  0  0
   -9.2930   -2.7420    2.7270 C   0  0  0  0  0
  -10.2510   -3.8130    2.2130 C   0  0  0  0  0
  -11.5260   -3.2600    1.7750 N   0  0  0  0  0
  -12.6540   -3.3240    2.6960 C   0  0  0  0  0
  -13.5670   -4.4970    2.3370 C   0  0  0  0  0
  -14.7530   -4.5850    3.3000 C   0  0  0  0  0
  -15.7230   -5.7230    2.9690 C   0  0  0  0  0
  -16.8690   -5.8580    3.9740 C   0  0  0  0  0
  -17.8120   -6.9990    3.5880 C   0  0  0  0  0
  -18.9710   -7.1180    4.5650 C   0  0  0  0  0
  -11.6600   -2.6740    0.5170 C   0  0  0  0  0
  -12.8970   -2.2120    0.2600 O   0  0  0  0  0
  -12.7540   -1.7050   -1.0000 C   0  0  0  0  0
  -13.7260   -1.0910   -1.7800 C   0  0  0  0  0
  -13.3060   -0.6610   -3.0430 C   0  0  0  0  0
  -11.9880   -0.8460   -3.4770 C   0  0  0  0  0
  -11.0340   -1.4710   -2.6610 C   0  0  0  0  0
  -11.4390   -1.9080   -1.3920 C   0  0  0  0  0
  -10.7490   -2.5400   -0.3850 N   0  0  0  0  0
  -13.6350   -3.3650    9.1120 H   0  0  0  0  0
  -14.0720   -1.7380    9.6500 H   0  0  0  0  0
  -14.6190   -2.3340    8.0690 H   0  0  0  0  0
  -11.7000   -1.9080    8.8700 H   0  0  0  0  0
  -12.2470   -2.4530    7.2910 H   0  0  0  0  0
  -14.4130    1.4590    9.7770 H   0  0  0  0  0
  -14.6240   -0.0760    6.9610 H   0  0  0  0  0
  -13.5770   -0.9040    5.8230 H   0  0  0  0  0
  -13.4280    0.8530    6.0480 H   0  0  0  0  0
  -11.6730    0.7370    4.6890 H   0  0  0  0  0
  -10.7960   -0.4800    2.7310 H   0  0  0  0  0
   -9.8470   -2.1520    7.3060 H   0  0  0  0  0
   -8.9690   -3.3720    5.3490 H   0  0  0  0  0
   -8.3410   -3.2110    3.0080 H   0  0  0  0  0
   -9.0550   -2.0320    1.9250 H   0  0  0  0  0
   -9.8130   -4.3200    1.3470 H   0  0  0  0  0
  -10.4630   -4.5670    2.9780 H   0  0  0  0  0
  -13.2120   -2.3830    2.6430 H   0  0  0  0  0
  -12.2800   -3.4340    3.7200 H   0  0  0  0  0
  -12.9980   -5.4340    2.3710 H   0  0  0  0  0
  -13.9270   -4.3720    1.3100 H   0  0  0  0  0
  -15.2950   -3.6320    3.3100 H   0  0  0  0  0
  -14.3770   -4.7440    4.3180 H   0  0  0  0  0
  -15.1540   -6.6610    2.9480 H   0  0  0  0  0
  -16.1300   -5.5780    1.9610 H   0  0  0  0  0
  -16.4610   -6.0420    4.9750 H   0  0  0  0  0
  -17.4400   -4.9240    4.0210 H   0  0  0  0  0
  -17.2620   -7.9470    3.5680 H   0  0  0  0  0
  -18.2070   -6.8310    2.5800 H   0  0  0  0  0
  -18.6100   -7.3200    5.5790 H   0  0  0  0  0
  -19.5620   -6.1970    4.5870 H   0  0  0  0  0
  -19.6330   -7.9390    4.2700 H   0  0  0  0  0
  -14.7430   -0.9530   -1.4340 H   0  0  0  0  0
  -14.0200   -0.1720   -3.7020 H   0  0  0  0  0
  -11.6980   -0.4990   -4.4660 H   0  0  0  0  0
  -10.0160   -1.6110   -3.0080 H   0  0  0  0  0
  1  2  1  0  0  0
  1 34  1  0  0  0
  1 35  1  0  0  0
  1 36  1  0  0  0
  2  3  1  0  0  0
  2 37  1  0  0  0
  2 38  1  0  0  0
  3  8  1  0  0  0
  3  7  1  0  0  0
  3  4  1  0  0  0
  4  6  2  0  0  0
  4  5  1  0  0  0
  5 39  1  0  0  0
  7 40  1  0  0  0
  7 41  1  0  0  0
  7 42  1  0  0  0
  8  9  1  0  0  0
  9 12  2  0  0  0
  9 10  1  0  0  0
 10 11  2  0  0  0
 10 43  1  0  0  0
 11 14  1  0  0  0
 11 44  1  0  0  0
 12 13  1  0  0  0
 12 45  1  0  0  0
 13 14  2  0  0  0
 13 46  1  0  0  0
 14 15  1  0  0  0
 15 16  1  0  0  0
 15 47  1  0  0  0
 15 48  1  0  0  0
 16 17  1  0  0  0
 16 49  1  0  0  0
 16 50  1  0  0  0
 17 25  1  0  0  0
 17 18  1  0  0  0
 18 19  1  0  0  0
 18 51  1  0  0  0
 18 52  1  0  0  0
 19 20  1  0  0  0
 19 53  1  0  0  0
 19 54  1  0  0  0
 20 21  1  0  0  0
 20 55  1  0  0  0
 20 56  1  0  0  0
 21 22  1  0  0  0
 21 57  1  0  0  0
 21 58  1  0  0  0
 22 23  1  0  0  0
 22 59  1  0  0  0
 22 60  1  0  0  0
 23 24  1  0  0  0
 23 61  1  0  0  0
 23 62  1  0  0  0
 24 63  1  0  0  0
 24 64  1  0  0  0
 24 65  1  0  0  0
 25 33  2  0  0  0
 25 26  1  0  0  0
 26 27  1  0  0  0
 27 28  2  0  0  0
 27 32  1  0  0  0
 28 29  1  0  0  0
 28 66  1  0  0  0
 29 30  2  0  0  0
 29 67  1  0  0  0
 30 31  1  0  0  0
 30 68  1  0  0  0
 31 32  2  0  0  0
 31 69  1  0  0  0
 32 33  1  0  0  0
M  END
$$$$
