DRJ
  CCTOOLS-0919241027

 69 71  0  0  1  0  0  0  0  0999 V2000
    2.8620   -0.0210   -0.7920 C   0  0  0  0  0
    3.0960   -0.4240   -2.2430 C   0  0  0  0  0
    1.8110   -0.7530   -3.0230 C   0  0  0  0  0
    2.1550   -1.1520   -4.4560 C   0  0  0  0  0
    2.9220   -0.2370   -5.1010 O   0  0  0  0  0
    1.7830   -2.1890   -4.9920 O   0  0  0  0  0
    0.9460   -1.8190   -2.3510 C   0  0  0  0  0
    1.0420    0.4440   -3.1250 O   0  0  0  0  0
   -0.1230    0.3730   -3.8250 C   0  0  0  0  0
   -1.3110    0.0440   -3.1720 C   0  0  0  0  0
   -2.5050   -0.0270   -3.8900 C   0  0  0  0  0
   -0.1300    0.6320   -5.1960 C   0  0  0  0  0
   -1.3240    0.5610   -5.9140 C   0  0  0  0  0
   -2.4960    0.2330   -5.2510 C   0  0  0  0  0
   -3.7880    0.1570   -6.0270 C   0  0  0  0  0
   -4.0630   -1.2350   -6.5920 C   0  0  0  0  0
   -4.1850   -2.2460   -5.5510 N   0  0  0  0  0
   -3.0230   -3.0780   -5.2630 C   0  0  0  0  0
   -3.1570   -4.4360   -5.9530 C   0  0  0  0  0
   -1.9410   -5.3200   -5.6690 C   0  0  0  0  0
   -2.0340   -6.7090   -6.3070 C   0  0  0  0  0
   -0.7870   -7.5670   -6.0860 C   0  0  0  0  0
   -0.9400   -8.9440   -6.7330 C   0  0  0  0  0
    0.2840   -9.8130   -6.4880 C   0  0  0  0  0
   -5.3740   -2.4060   -4.8410 C   0  0  0  0  0
   -5.3300   -3.3810   -3.9150 O   0  0  0  0  0
   -6.5870   -3.3260   -3.3850 C   0  0  0  0  0
   -7.1130   -4.1180   -2.3710 C   0  0  0  0  0
   -8.4390   -3.8470   -2.0180 C   0  0  0  0  0
   -9.1740   -2.8390   -2.6540 C   0  0  0  0  0
   -8.6080   -2.0600   -3.6740 C   0  0  0  0  0
   -7.2800   -2.3190   -4.0400 C   0  0  0  0  0
   -6.4670   -1.7370   -4.9830 N   0  0  0  0  0
    3.8150    0.2400   -0.3190 H   0  0  0  0  0
    2.2030    0.8490   -0.7180 H   0  0  0  0  0
    2.4220   -0.8410   -0.2160 H   0  0  0  0  0
    3.6120    0.4090   -2.7400 H   0  0  0  0  0
    3.7880   -1.2740   -2.2640 H   0  0  0  0  0
    3.1630   -0.4550   -6.0250 H   0  0  0  0  0
    0.1250   -2.1250   -3.0110 H   0  0  0  0  0
    0.4790   -1.4340   -1.4370 H   0  0  0  0  0
    1.5200   -2.7150   -2.0980 H   0  0  0  0  0
   -1.3120   -0.1580   -2.1050 H   0  0  0  0  0
   -3.4250   -0.2840   -3.3720 H   0  0  0  0  0
    0.7920    0.8900   -5.7110 H   0  0  0  0  0
   -1.3190    0.7640   -6.9810 H   0  0  0  0  0
   -3.7420    0.8800   -6.8510 H   0  0  0  0  0
   -4.6230    0.4780   -5.3900 H   0  0  0  0  0
   -5.0090   -1.2330   -7.1430 H   0  0  0  0  0
   -3.2700   -1.5570   -7.2750 H   0  0  0  0  0
   -2.9400   -3.2140   -4.1790 H   0  0  0  0  0
   -2.1170   -2.5660   -5.6050 H   0  0  0  0  0
   -3.2610   -4.2940   -7.0360 H   0  0  0  0  0
   -4.0700   -4.9310   -5.6010 H   0  0  0  0  0
   -1.8010   -5.4220   -4.5860 H   0  0  0  0  0
   -1.0410   -4.8270   -6.0580 H   0  0  0  0  0
   -2.1920   -6.5790   -7.3850 H   0  0  0  0  0
   -2.9170   -7.2330   -5.9210 H   0  0  0  0  0
    0.0890   -7.0590   -6.5080 H   0  0  0  0  0
   -0.6030   -7.6940   -5.0130 H   0  0  0  0  0
   -1.0920   -8.8340   -7.8120 H   0  0  0  0  0
   -1.8260   -9.4480   -6.3290 H   0  0  0  0  0
    1.1830   -9.3520   -6.9100 H   0  0  0  0  0
    0.4470   -9.9690   -5.4170 H   0  0  0  0  0
    0.1530  -10.7930   -6.9580 H   0  0  0  0  0
   -6.5360   -4.8950   -1.8860 H   0  0  0  0  0
   -8.9100   -4.4320   -1.2310 H   0  0  0  0  0
  -10.2030   -2.6570   -2.3530 H   0  0  0  0  0
   -9.1870   -1.2830   -4.1620 H   0  0  0  0  0
  1  2  1  0  0  0
  1 34  1  0  0  0
  1 35  1  0  0  0
  1 36  1  0  0  0
  2  3  1  0  0  0
  2 37  1  0  0  0
  2 38  1  0  0  0
  3  8  1  0  0  0
  3  7  1  0  0  0
  3  4  1  0  0  0
  4  6  2  0  0  0
  4  5  1  0  0  0
  5 39  1  0  0  0
  7 40  1  0  0  0
  7 41  1  0  0  0
  7 42  1  0  0  0
  8  9  1  0  0  0
  9 12  2  0  0  0
  9 10  1  0  0  0
 10 11  2  0  0  0
 10 43  1  0  0  0
 11 14  1  0  0  0
 11 44  1  0  0  0
 12 13  1  0  0  0
 12 45  1  0  0  0
 13 14  2  0  0  0
 13 46  1  0  0  0
 14 15  1  0  0  0
 15 16  1  0  0  0
 15 47  1  0  0  0
 15 48  1  0  0  0
 16 17  1  0  0  0
 16 49  1  0  0  0
 16 50  1  0  0  0
 17 25  1  0  0  0
 17 18  1  0  0  0
 18 19  1  0  0  0
 18 51  1  0  0  0
 18 52  1  0  0  0
 19 20  1  0  0  0
 19 53  1  0  0  0
 19 54  1  0  0  0
 20 21  1  0  0  0
 20 55  1  0  0  0
 20 56  1  0  0  0
 21 22  1  0  0  0
 21 57  1  0  0  0
 21 58  1  0  0  0
 22 23  1  0  0  0
 22 59  1  0  0  0
 22 60  1  0  0  0
 23 24  1  0  0  0
 23 61  1  0  0  0
 23 62  1  0  0  0
 24 63  1  0  0  0
 24 64  1  0  0  0
 24 65  1  0  0  0
 25 33  2  0  0  0
 25 26  1  0  0  0
 26 27  1  0  0  0
 27 32  2  0  0  0
 27 28  1  0  0  0
 28 29  2  0  0  0
 28 66  1  0  0  0
 29 30  1  0  0  0
 29 67  1  0  0  0
 30 31  2  0  0  0
 30 68  1  0  0  0
 31 32  1  0  0  0
 31 69  1  0  0  0
 32 33  1  0  0  0
M  END
$$$$
