DSE
  CCTOOLS-1004241127

 17 16  0  0  1  0  0  0  0  0999 V2000
    0.8810    0.4380    1.3840 N   0  0  0  0  0
    0.5150   -0.2050    0.1150 C   0  0  0  0  0
   -0.9710   -0.0850   -0.0980 C   0  0  0  0  0
   -1.5620   -0.9370   -0.7180 O   0  0  0  0  0
   -1.6380    0.9670    0.3990 O   0  0  0  0  0
    1.2530    0.4810   -1.0350 C   0  0  0  0  0
    0.7910   -0.5960    2.4230 C   0  0  0  0  0
    0.8980   -0.1440   -2.2700 O   0  0  0  0  0
    0.1590    1.1140    1.5840 H   0  0  0  0  0
    0.7940   -1.2580    0.1480 H   0  0  0  0  0
   -2.5920    1.0430    0.2620 H   0  0  0  0  0
    0.9750    1.5340   -1.0690 H   0  0  0  0  0
    2.3290    0.3940   -0.8810 H   0  0  0  0  0
    1.0540   -0.1650    3.3890 H   0  0  0  0  0
   -0.2270   -0.9820    2.4640 H   0  0  0  0  0
    1.4790   -1.4080    2.1880 H   0  0  0  0  0
    1.3830    0.3160   -2.9670 H   0  0  0  0  0
  1  2  1  0  0  0
  1  7  1  0  0  0
  1  9  1  0  0  0
  2  3  1  0  0  0
  2  6  1  0  0  0
  2 10  1  0  0  0
  3  4  2  0  0  0
  3  5  1  0  0  0
  5 11  1  0  0  0
  6  8  1  0  0  0
  6 12  1  0  0  0
  6 13  1  0  0  0
  7 14  1  0  0  0
  7 15  1  0  0  0
  7 16  1  0  0  0
  8 17  1  0  0  0
M  END
$$$$
