DSN
  CCTOOLS-0919241027

 14 13  0  0  1  0  0  0  0  0999 V2000
   -0.7870   -0.9230    0.5380 N   0  0  0  0  0
   -0.4690   -2.1170   -0.2070 C   0  0  0  0  0
   -1.2990   -2.0930   -1.4740 C   0  0  0  0  0
   -1.5830   -1.0870   -2.1120 O   0  0  0  0  0
   -1.7490   -3.3310   -1.8080 O   0  0  0  0  0
    1.0140   -2.1900   -0.5420 C   0  0  0  0  0
    1.2710   -3.3900   -1.2620 O   0  0  0  0  0
   -1.4090   -0.2470    0.1320 H   0  0  0  0  0
   -0.2330   -0.6920    1.3450 H   0  0  0  0  0
   -0.7820   -2.9500    0.4310 H   0  0  0  0  0
   -2.3220   -3.3660   -2.6040 H   0  0  0  0  0
    1.6220   -2.2080    0.3680 H   0  0  0  0  0
    1.3310   -1.3390   -1.1540 H   0  0  0  0  0
    1.9170   -3.1680   -1.9520 H   0  0  0  0  0
  1  2  1  0  0  0
  1  8  1  0  0  0
  1  9  1  0  0  0
  2  3  1  0  0  0
  2  6  1  0  0  0
  2 10  1  0  0  0
  3  4  2  0  0  0
  3  5  1  0  0  0
  5 11  1  0  0  0
  6  7  1  0  0  0
  6 12  1  0  0  0
  6 13  1  0  0  0
  7 14  1  0  0  0
M  END
$$$$
