DST
  CCTOOLS-0919241027

 26 25  0  0  0  0  0  0  0  0999 V2000
    3.2080    1.8770   -0.1700 O   0  0  0  0  0
    3.1660    0.2680   -0.1880 P   0  0  0  0  0
    4.1730   -0.2820   -1.3170 O   0  0  0  0  0
    3.5790   -0.2510    1.1360 O   0  0  0  0  0
    1.6700   -0.2270   -0.5160 O   0  0  0  0  0
    0.3020   -0.2920    0.3310 P   0  0  0  0  0
    0.5150   -1.2290    1.6230 O   0  0  0  0  0
   -0.0730    1.0720    0.7670 O   0  0  0  0  0
   -1.2410   -1.0970   -0.8790 S   0  0  0  0  0
   -2.6760   -1.0900    0.2310 C   0  0  0  0  0
   -3.1900    0.3190    0.3790 C   0  0  0  0  0
   -4.3940    0.6240   -0.0360 C   0  0  0  0  0
   -5.3290   -0.4630   -0.5000 C   0  0  0  0  0
   -4.8450    2.0620   -0.0500 C   0  0  0  0  0
    2.9490    2.2870   -1.0070 H   0  0  0  0  0
    5.0950   -0.0220   -1.1830 H   0  0  0  0  0
    0.7630   -2.1390    1.4120 H   0  0  0  0  0
   -3.4610   -1.7210   -0.1860 H   0  0  0  0  0
   -2.3810   -1.4730    1.2080 H   0  0  0  0  0
   -2.5650    1.0780    0.8270 H   0  0  0  0  0
   -4.8710   -1.4360   -0.3230 H   0  0  0  0  0
   -6.2660   -0.3970    0.0540 H   0  0  0  0  0
   -5.5270   -0.3420   -1.5650 H   0  0  0  0  0
   -4.5970    2.5110   -1.0120 H   0  0  0  0  0
   -5.9230    2.1070    0.1050 H   0  0  0  0  0
   -4.3400    2.6090    0.7460 H   0  0  0  0  0
  1  2  1  0  0  0
  1 15  1  0  0  0
  2  3  1  0  0  0
  2  4  2  0  0  0
  2  5  1  0  0  0
  3 16  1  0  0  0
  5  6  1  0  0  0
  6  7  1  0  0  0
  6  8  2  0  0  0
  6  9  1  0  0  0
  7 17  1  0  0  0
  9 10  1  0  0  0
 10 11  1  0  0  0
 10 18  1  0  0  0
 10 19  1  0  0  0
 11 12  2  0  0  0
 11 20  1  0  0  0
 12 13  1  0  0  0
 12 14  1  0  0  0
 13 21  1  0  0  0
 13 22  1  0  0  0
 13 23  1  0  0  0
 14 24  1  0  0  0
 14 25  1  0  0  0
 14 26  1  0  0  0
M  END
$$$$
