DTB
  CCTOOLS-0919241027

 33 33  0  0  1  0  0  0  0  0999 V2000
   -3.7900   -1.1210    0.2460 C   0  0  0  0  0
   -4.2590   -2.1210    0.7540 O   0  0  0  0  0
   -2.5760   -1.0900   -0.3180 N   0  0  0  0  0
   -2.3170    0.2630   -0.8330 C   0  0  0  0  0
   -3.5960    1.0450   -0.4770 C   0  0  0  0  0
   -4.4430    0.0470    0.1960 N   0  0  0  0  0
   -3.2720    2.2050    0.4670 C   0  0  0  0  0
   -1.1010    0.8790   -0.1380 C   0  0  0  0  0
    0.1570    0.0990   -0.5250 C   0  0  0  0  0
    1.3730    0.7150    0.1700 C   0  0  0  0  0
    2.6310   -0.0650   -0.2180 C   0  0  0  0  0
    3.8470    0.5500    0.4770 C   0  0  0  0  0
    5.0860   -0.2180    0.0950 C   0  0  0  0  0
    5.0050   -1.1610   -0.6560 O   0  0  0  0  0
    6.2800    0.1450    0.5900 O   0  0  0  0  0
   -1.9640   -1.8400   -0.3780 H   0  0  0  0  0
   -2.1710    0.2400   -1.9130 H   0  0  0  0  0
   -4.0850    1.4100   -1.3800 H   0  0  0  0  0
   -5.3310    0.2110    0.5490 H   0  0  0  0  0
   -2.5680    2.8810   -0.0180 H   0  0  0  0  0
   -4.1880    2.7450    0.7070 H   0  0  0  0  0
   -2.8290    1.8150    1.3830 H   0  0  0  0  0
   -0.9930    1.9190   -0.4470 H   0  0  0  0  0
   -1.2380    0.8330    0.9420 H   0  0  0  0  0
    0.0500   -0.9410   -0.2160 H   0  0  0  0  0
    0.2940    0.1450   -1.6060 H   0  0  0  0  0
    1.4810    1.7540   -0.1390 H   0  0  0  0  0
    1.2360    0.6690    1.2500 H   0  0  0  0  0
    2.5240   -1.1050    0.0910 H   0  0  0  0  0
    2.7690   -0.0200   -1.2980 H   0  0  0  0  0
    3.9550    1.5900    0.1680 H   0  0  0  0  0
    3.7100    0.5040    1.5570 H   0  0  0  0  0
    7.0460   -0.3770    0.3160 H   0  0  0  0  0
  1  2  2  0  0  0
  1  3  1  0  0  0
  1  6  1  0  0  0
  3  4  1  0  0  0
  3 16  1  0  0  0
  4  5  1  0  0  0
  4  8  1  0  0  0
  4 17  1  0  0  0
  5  6  1  0  0  0
  5  7  1  0  0  0
  5 18  1  0  0  0
  6 19  1  0  0  0
  7 20  1  0  0  0
  7 21  1  0  0  0
  7 22  1  0  0  0
  8  9  1  0  0  0
  8 23  1  0  0  0
  8 24  1  0  0  0
  9 10  1  0  0  0
  9 25  1  0  0  0
  9 26  1  0  0  0
 10 11  1  0  0  0
 10 27  1  0  0  0
 10 28  1  0  0  0
 11 12  1  0  0  0
 11 29  1  0  0  0
 11 30  1  0  0  0
 12 13  1  0  0  0
 12 31  1  0  0  0
 12 32  1  0  0  0
 13 14  2  0  0  0
 13 15  1  0  0  0
 15 33  1  0  0  0
M  END
$$$$
