DTT
  CCTOOLS-1004241127

 18 17  0  0  1  0  0  0  0  0999 V2000
   -0.0520   -0.2550   -3.4080 S   0  0  0  0  0
    0.7400   -0.2550   -1.7770 C   0  0  0  0  0
   -0.3340   -0.2550   -0.6880 C   0  0  0  0  0
   -1.1480    0.9100   -0.8220 O   0  0  0  0  0
    0.3340   -0.2550    0.6880 C   0  0  0  0  0
    1.1470    0.9110    0.8220 O   0  0  0  0  0
   -0.7400   -0.2560    1.7770 C   0  0  0  0  0
    0.0520   -0.2550    3.4080 S   0  0  0  0  0
    1.0360   -0.2550   -4.1970 H   0  0  0  0  0
    1.3600    0.6350   -1.6750 H   0  0  0  0  0
    1.3610   -1.1440   -1.6750 H   0  0  0  0  0
   -0.9540   -1.1460   -0.7900 H   0  0  0  0  0
   -0.5620    1.6730   -0.7250 H   0  0  0  0  0
    0.9550   -1.1450    0.7900 H   0  0  0  0  0
    0.5600    1.6740    0.7250 H   0  0  0  0  0
   -1.3610    0.6330    1.6750 H   0  0  0  0  0
   -1.3600   -1.1460    1.6750 H   0  0  0  0  0
   -1.0360   -0.2560    4.1970 H   0  0  0  0  0
  1  2  1  0  0  0
  1  9  1  0  0  0
  2  3  1  0  0  0
  2 10  1  0  0  0
  2 11  1  0  0  0
  3  4  1  0  0  0
  3  5  1  0  0  0
  3 12  1  0  0  0
  4 13  1  0  0  0
  5  6  1  0  0  0
  5  7  1  0  0  0
  5 14  1  0  0  0
  6 15  1  0  0  0
  7  8  1  0  0  0
  7 16  1  0  0  0
  7 17  1  0  0  0
  8 18  1  0  0  0
M  END
$$$$
