DTU
  CCTOOLS-1004241127

 18 17  0  0  1  0  0  0  0  0999 V2000
   -0.0470    0.1280    3.4060 S   0  0  0  0  0
   -0.6140   -0.4250    1.7740 C   0  0  0  0  0
    0.2380    0.2330    0.6880 C   0  0  0  0  0
    1.6070   -0.1350    0.8680 O   0  0  0  0  0
   -0.2380   -0.2330   -0.6880 C   0  0  0  0  0
   -1.6070    0.1350   -0.8680 O   0  0  0  0  0
    0.6140    0.4250   -1.7740 C   0  0  0  0  0
    0.0470   -0.1280   -3.4060 S   0  0  0  0  0
   -0.9040   -0.5470    4.1920 H   0  0  0  0  0
   -1.6580   -0.1430    1.6370 H   0  0  0  0  0
   -0.5170   -1.5080    1.7040 H   0  0  0  0  0
    0.1420    1.3170    0.7570 H   0  0  0  0  0
    1.6480   -1.0990    0.7990 H   0  0  0  0  0
   -0.1420   -1.3170   -0.7570 H   0  0  0  0  0
   -1.6480    1.0990   -0.7990 H   0  0  0  0  0
    0.5170    1.5080   -1.7040 H   0  0  0  0  0
    1.6580    0.1430   -1.6370 H   0  0  0  0  0
    0.9040    0.5470   -4.1920 H   0  0  0  0  0
  1  2  1  0  0  0
  1  9  1  0  0  0
  2  3  1  0  0  0
  2 10  1  0  0  0
  2 11  1  0  0  0
  3  4  1  0  0  0
  3  5  1  0  0  0
  3 12  1  0  0  0
  4 13  1  0  0  0
  5  6  1  0  0  0
  5  7  1  0  0  0
  5 14  1  0  0  0
  6 15  1  0  0  0
  7  8  1  0  0  0
  7 16  1  0  0  0
  7 17  1  0  0  0
  8 18  1  0  0  0
M  END
$$$$
