DUZ
  CCTOOLS-0919241028

 50 52  0  0  1  0  0  0  0  0999 V2000
    6.2990    1.8500    0.1860 P   0  0  0  0  0
    0.2700   -1.0800    0.1410 N   0  0  0  0  0
    0.2600   -0.6550   -1.1320 C   0  0  0  0  0
    1.3000   -0.6560   -1.7610 O   0  0  0  0  0
   -0.8630   -0.2280   -1.7340 N   0  0  0  0  0
   -2.0350   -0.2140   -1.0640 C   0  0  0  0  0
   -3.0560    0.1700   -1.6040 O   0  0  0  0  0
   -2.0510   -0.6750    0.3330 C   0  0  0  0  0
   -0.8620   -1.1010    0.8910 C   0  0  0  0  0
    1.5300   -1.5380    0.7330 C   0  0  0  0  0
    2.0200   -2.8050    0.0060 C   0  0  0  0  0
   -3.2980   -0.6830    1.1130 C   0  0  0  0  0
   -3.3140   -1.1630    2.2310 O   0  0  0  0  0
   -4.4240   -0.1580    0.5890 N   0  0  0  0  0
   -5.6370   -0.0640    1.4050 C   0  0  0  0  0
   -6.7440    0.5540    0.5900 C   0  0  0  0  0
   -7.5860   -0.2500   -0.1550 C   0  0  0  0  0
   -8.6010    0.3170   -0.9020 C   0  0  0  0  0
   -8.7740    1.6880   -0.9050 C   0  0  0  0  0
   -7.9320    2.4920   -0.1600 C   0  0  0  0  0
    3.4200   -2.4170   -0.5310 C   0  0  0  0  0
    4.3450   -3.4940   -0.3670 O   0  0  0  0  0
   -6.9210    1.9250    0.5920 C   0  0  0  0  0
    3.7970   -1.2210    0.3800 C   0  0  0  0  0
    2.5420   -0.5310    0.5660 O   0  0  0  0  0
    4.8130   -0.3140   -0.3160 C   0  0  0  0  0
    5.2310    0.7130    0.5850 O   0  0  0  0  0
    7.5420    1.2100   -0.2990 O   0  0  0  0  0
    5.6850    2.7790   -0.9770 O   0  0  0  0  0
    6.6280    2.7540    1.4770 O   0  0  0  0  0
   -0.8320    0.0720   -2.6560 H   0  0  0  0  0
   -0.8320   -1.4470    1.9140 H   0  0  0  0  0
    1.3860   -1.7500    1.7920 H   0  0  0  0  0
    2.0970   -3.6390    0.7040 H   0  0  0  0  0
    1.3520   -3.0560   -0.8170 H   0  0  0  0  0
   -4.4310    0.1570   -0.3280 H   0  0  0  0  0
   -5.9360   -1.0610    1.7270 H   0  0  0  0  0
   -5.4390    0.5560    2.2790 H   0  0  0  0  0
   -7.4500   -1.3220   -0.1530 H   0  0  0  0  0
   -9.2580   -0.3120   -1.4850 H   0  0  0  0  0
   -9.5670    2.1310   -1.4890 H   0  0  0  0  0
   -8.0680    3.5640   -0.1620 H   0  0  0  0  0
    3.3640   -2.1090   -1.5750 H   0  0  0  0  0
    4.1020   -4.2980   -0.8470 H   0  0  0  0  0
   -6.2660    2.5530    1.1780 H   0  0  0  0  0
    4.1890   -1.5730    1.3340 H   0  0  0  0  0
    5.6780   -0.9030   -0.6210 H   0  0  0  0  0
    4.3540    0.1390   -1.1950 H   0  0  0  0  0
    4.8670    3.2300   -0.7290 H   0  0  0  0  0
    7.2670    3.4610    1.3090 H   0  0  0  0  0
  1 29  1  0  0  0
  1 30  1  0  0  0
  2  9  1  0  0  0
  3  2  1  0  0  0
  3  5  1  0  0  0
  4  3  2  0  0  0
  5  6  1  0  0  0
  5 31  1  0  0  0
  6  7  2  0  0  0
  6  8  1  0  0  0
  8 12  1  0  0  0
  9  8  2  0  0  0
  9 32  1  0  0  0
 10  2  1  0  0  0
 10 11  1  0  0  0
 10 25  1  0  0  0
 10 33  1  0  0  0
 11 21  1  0  0  0
 11 34  1  0  0  0
 11 35  1  0  0  0
 12 14  1  0  0  0
 12 13  2  0  0  0
 14 15  1  0  0  0
 14 36  1  0  0  0
 15 16  1  0  0  0
 15 37  1  0  0  0
 15 38  1  0  0  0
 16 17  1  0  0  0
 17 18  2  0  0  0
 17 39  1  0  0  0
 18 40  1  0  0  0
 19 18  1  0  0  0
 19 41  1  0  0  0
 20 19  2  0  0  0
 20 42  1  0  0  0
 21 24  1  0  0  0
 21 43  1  0  0  0
 22 21  1  0  0  0
 22 44  1  0  0  0
 23 16  2  0  0  0
 23 20  1  0  0  0
 23 45  1  0  0  0
 24 26  1  0  0  0
 24 46  1  0  0  0
 25 24  1  0  0  0
 26 27  1  0  0  0
 26 47  1  0  0  0
 26 48  1  0  0  0
 27  1  1  0  0  0
 28  1  2  0  0  0
 29 49  1  0  0  0
 30 50  1  0  0  0
M  END
$$$$
