DVC
  CCTOOLS-1004241127

 27 27  0  0  1  0  0  0  0  0999 V2000
    1.7570    0.6360   -0.5980 C   0  0  0  0  0
    2.3550    0.5510    0.6970 O   0  0  0  0  0
    1.2340   -0.7420   -1.0110 C   0  0  0  0  0
    0.1480   -1.1830   -0.0260 C   0  0  0  0  0
   -0.4120   -2.4720   -0.4560 N   0  0  0  0  0
   -0.9600   -0.1260    0.0040 C   0  0  0  0  0
   -1.5690   -0.0360   -1.2860 O   0  0  0  0  0
   -0.3520    1.2290    0.3770 C   0  0  0  0  0
    0.6720    1.5650   -0.5610 O   0  0  0  0  0
   -1.4420    2.3020    0.3500 C   0  0  0  0  0
    0.7530   -1.3290    1.3720 C   0  0  0  0  0
   -1.9440   -0.4920    0.9730 O   0  0  0  0  0
    2.5000    0.9750   -1.3200 H   0  0  0  0  0
    2.7090    1.3900    1.0230 H   0  0  0  0  0
    0.8140   -0.6860   -2.0150 H   0  0  0  0  0
    2.0530   -1.4610   -0.9980 H   0  0  0  0  0
    0.3030   -3.1830   -0.4880 H   0  0  0  0  0
   -1.1740   -2.7530    0.1420 H   0  0  0  0  0
   -2.2810    0.6160   -1.3410 H   0  0  0  0  0
    0.0760    1.1710    1.3780 H   0  0  0  0  0
   -2.2240    2.0450    1.0650 H   0  0  0  0  0
   -1.0100    3.2660    0.6160 H   0  0  0  0  0
   -1.8700    2.3600   -0.6510 H   0  0  0  0  0
    1.0060   -0.3440    1.7630 H   0  0  0  0  0
    0.0300   -1.8070    2.0330 H   0  0  0  0  0
    1.6530   -1.9400    1.3160 H   0  0  0  0  0
   -2.6770    0.1350    1.0450 H   0  0  0  0  0
  1  2  1  0  0  0
  1 13  1  0  0  0
  2 14  1  0  0  0
  3  1  1  0  0  0
  3 15  1  0  0  0
  3 16  1  0  0  0
  4  3  1  0  0  0
  4 11  1  0  0  0
  5  4  1  0  0  0
  5 17  1  0  0  0
  5 18  1  0  0  0
  6  4  1  0  0  0
  6  8  1  0  0  0
  7  6  1  0  0  0
  7 19  1  0  0  0
  8  9  1  0  0  0
  8 20  1  0  0  0
  9  1  1  0  0  0
 10  8  1  0  0  0
 10 21  1  0  0  0
 10 22  1  0  0  0
 10 23  1  0  0  0
 11 24  1  0  0  0
 11 25  1  0  0  0
 11 26  1  0  0  0
 12  6  1  0  0  0
 12 27  1  0  0  0
M  END
$$$$
