DXC
  CCTOOLS-0919241028

 68 71  0  0  1  0  0  0  0  0999 V2000
    0.6910   -0.8920   -5.4730 C   0  0  0  0  0
   -0.6440   -0.8950   -4.7270 C   0  0  0  0  0
   -1.0170    0.5370   -4.3420 C   0  0  0  0  0
    0.0700    1.1200   -3.4370 C   0  0  0  0  0
    1.4050    1.1250   -4.1840 C   0  0  0  0  0
    1.7780   -0.3070   -4.5700 C   0  0  0  0  0
   -2.3530    0.5320   -3.5970 C   0  0  0  0  0
   -2.2300   -0.3160   -2.3300 C   0  0  0  0  0
   -1.1460    0.2710   -1.4260 C   0  0  0  0  0
    0.2010    0.2820   -2.1640 C   0  0  0  0  0
   -0.9730   -0.5820   -0.1840 C   0  0  0  0  0
    0.0700    0.1180    0.7290 C   0  0  0  0  0
    1.4190    0.0720    0.0430 C   0  0  0  0  0
    1.3230    0.8330   -1.2900 C   0  0  0  0  0
   -2.1900   -0.6670    0.7420 C   0  0  0  0  0
   -1.5630   -1.0730    2.1040 C   0  0  0  0  0
   -0.0860   -0.6090    2.0600 C   0  0  0  0  0
   -0.3020    2.5520   -3.0470 C   0  0  0  0  0
    0.2050    0.3420    3.2220 C   0  0  0  0  0
    1.7290   -1.3000   -0.2010 O   0  0  0  0  0
    1.0400   -2.2300   -5.8330 O   0  0  0  0  0
   -0.3860    1.5710    0.8760 C   0  0  0  0  0
    0.0110   -0.3970    4.5480 C   0  0  0  0  0
    0.3020    0.5540    5.7100 C   0  0  0  0  0
    0.1110   -0.1740    7.0150 C   0  0  0  0  0
   -0.2230   -1.3350    7.0160 O   0  0  0  0  0
    0.3130    0.4670    8.1770 O   0  0  0  0  0
    1.6470    0.8410    3.1230 C   0  0  0  0  0
    0.6030   -0.2850   -6.3750 H   0  0  0  0  0
   -0.5550   -1.5030   -3.8270 H   0  0  0  0  0
   -1.4180   -1.3120   -5.3720 H   0  0  0  0  0
   -1.1050    1.1440   -5.2420 H   0  0  0  0  0
    2.1800    1.5420   -3.5410 H   0  0  0  0  0
    1.3150    1.7320   -5.0850 H   0  0  0  0  0
    1.8680   -0.9140   -3.6690 H   0  0  0  0  0
    2.7300   -0.3040   -5.1020 H   0  0  0  0  0
   -3.1270    0.1130   -4.2410 H   0  0  0  0  0
   -2.6210    1.5530   -3.3250 H   0  0  0  0  0
   -1.9630   -1.3370   -2.6010 H   0  0  0  0  0
   -3.1830   -0.3190   -1.8000 H   0  0  0  0  0
   -1.4160    1.2870   -1.1390 H   0  0  0  0  0
    0.4420   -0.7440   -2.4410 H   0  0  0  0  0
   -0.6310   -1.5810   -0.4550 H   0  0  0  0  0
    2.1890    0.5200    0.6700 H   0  0  0  0  0
    2.2690    0.7400   -1.8230 H   0  0  0  0  0
    1.1310    1.8860   -1.0860 H   0  0  0  0  0
   -2.8870   -1.4310    0.3950 H   0  0  0  0  0
   -2.6850    0.3000    0.8190 H   0  0  0  0  0
   -1.6120   -2.1550    2.2300 H   0  0  0  0  0
   -2.0870   -0.5770    2.9200 H   0  0  0  0  0
    0.5810   -1.4700    2.1010 H   0  0  0  0  0
   -0.3910    3.1620   -3.9470 H   0  0  0  0  0
   -1.2530    2.5480   -2.5150 H   0  0  0  0  0
    0.4720    2.9670   -2.4030 H   0  0  0  0  0
   -0.4770    1.1900    3.1760 H   0  0  0  0  0
    2.5780   -1.3170   -0.6640 H   0  0  0  0  0
    1.8850   -2.1830   -6.2990 H   0  0  0  0  0
   -0.3590    2.0600   -0.0970 H   0  0  0  0  0
   -1.4030    1.5950    1.2670 H   0  0  0  0  0
    0.2790    2.0930    1.5630 H   0  0  0  0  0
   -1.0160   -0.7530    4.6180 H   0  0  0  0  0
    0.6930   -1.2460    4.5930 H   0  0  0  0  0
    1.3300    0.9090    5.6390 H   0  0  0  0  0
   -0.3790    1.4030    5.6640 H   0  0  0  0  0
    0.1910   -0.0000    9.0150 H   0  0  0  0  0
    2.3300   -0.0070    3.1690 H   0  0  0  0  0
    1.7860    1.3680    2.1790 H   0  0  0  0  0
    1.8550    1.5190    3.9510 H   0  0  0  0  0
  1  2  1  0  0  0
  1  6  1  0  0  0
  1 21  1  0  0  0
  1 29  1  0  0  0
  2  3  1  0  0  0
  2 30  1  0  0  0
  2 31  1  0  0  0
  3  4  1  0  0  0
  3  7  1  0  0  0
  3 32  1  0  0  0
  4  5  1  0  0  0
  4 10  1  0  0  0
  4 18  1  0  0  0
  5  6  1  0  0  0
  5 33  1  0  0  0
  5 34  1  0  0  0
  6 35  1  0  0  0
  6 36  1  0  0  0
  7  8  1  0  0  0
  7 37  1  0  0  0
  7 38  1  0  0  0
  8  9  1  0  0  0
  8 39  1  0  0  0
  8 40  1  0  0  0
  9 10  1  0  0  0
  9 11  1  0  0  0
  9 41  1  0  0  0
 10 14  1  0  0  0
 10 42  1  0  0  0
 11 12  1  0  0  0
 11 15  1  0  0  0
 11 43  1  0  0  0
 12 13  1  0  0  0
 12 17  1  0  0  0
 12 22  1  0  0  0
 13 14  1  0  0  0
 13 20  1  0  0  0
 13 44  1  0  0  0
 14 45  1  0  0  0
 14 46  1  0  0  0
 15 16  1  0  0  0
 15 47  1  0  0  0
 15 48  1  0  0  0
 16 17  1  0  0  0
 16 49  1  0  0  0
 16 50  1  0  0  0
 17 19  1  0  0  0
 17 51  1  0  0  0
 18 52  1  0  0  0
 18 53  1  0  0  0
 18 54  1  0  0  0
 19 23  1  0  0  0
 19 28  1  0  0  0
 19 55  1  0  0  0
 20 56  1  0  0  0
 21 57  1  0  0  0
 22 58  1  0  0  0
 22 59  1  0  0  0
 22 60  1  0  0  0
 23 24  1  0  0  0
 23 61  1  0  0  0
 23 62  1  0  0  0
 24 25  1  0  0  0
 24 63  1  0  0  0
 24 64  1  0  0  0
 25 26  2  0  0  0
 25 27  1  0  0  0
 27 65  1  0  0  0
 28 66  1  0  0  0
 28 67  1  0  0  0
 28 68  1  0  0  0
M  END
$$$$
