DXL
  CCTOOLS-0919241028

 20 19  0  0  1  0  0  0  0  0999 V2000
   -2.7440   -1.5100    0.0910 O   0  0  0  0  0
   -1.2490    1.8160    0.2810 O   0  0  0  0  0
    1.2490    1.8160    0.2810 O   0  0  0  0  0
    2.7440   -1.5100    0.0910 O   0  0  0  0  0
   -3.2280    0.4720   -0.7560 O   0  0  0  0  0
   -2.4800   -0.2070   -0.0950 C   0  0  0  0  0
   -1.2490    0.4070    0.5210 C   0  0  0  0  0
   -0.0000   -0.2170   -0.1040 C   0  0  0  0  0
    1.2490    0.4070    0.5210 C   0  0  0  0  0
    2.4800   -0.2070   -0.0950 C   0  0  0  0  0
    3.2280    0.4720   -0.7560 O   0  0  0  0  0
   -0.0000   -1.6260    0.1360 O   0  0  0  0  0
   -3.5450   -1.8590   -0.3230 H   0  0  0  0  0
   -1.2490    2.0550   -0.6560 H   0  0  0  0  0
    1.2490    2.0550   -0.6560 H   0  0  0  0  0
    3.5450   -1.8590   -0.3230 H   0  0  0  0  0
   -1.2490    0.2220    1.5950 H   0  0  0  0  0
   -0.0000   -0.0320   -1.1780 H   0  0  0  0  0
    1.2490    0.2220    1.5950 H   0  0  0  0  0
    0.0000   -1.8650    1.0730 H   0  0  0  0  0
  1 13  1  0  0  0
  2 14  1  0  0  0
  3 15  1  0  0  0
  4 10  1  0  0  0
  4 16  1  0  0  0
  5  6  2  0  0  0
  6  1  1  0  0  0
  6  7  1  0  0  0
  7  2  1  0  0  0
  7 17  1  0  0  0
  8  7  1  0  0  0
  8 12  1  0  0  0
  8 18  1  0  0  0
  9  3  1  0  0  0
  9  8  1  0  0  0
  9 19  1  0  0  0
 10  9  1  0  0  0
 11 10  2  0  0  0
 12 20  1  0  0  0
M  END
$$$$
