DXO
  CCTOOLS-0919241028

 43 45  0  0  0  0  0  0  0  0999 V2000
    1.0830   -2.5400   -1.3970 C   0  0  0  0  0
    2.2790   -2.0360   -0.6310 C   0  0  0  0  0
    3.4520   -2.7630   -0.6250 C   0  0  0  0  0
    4.5510   -2.3010    0.0770 C   0  0  0  0  0
    4.4800   -1.1110    0.7780 C   0  0  0  0  0
    3.3120   -0.3760    0.7790 C   0  0  0  0  0
    3.2370    0.9210    1.5430 C   0  0  0  0  0
    2.2040   -0.8330    0.0680 C   0  0  0  0  0
    0.9480   -0.0450    0.0600 C   0  0  0  0  0
    0.9850    1.2630   -0.1780 N   0  0  0  0  0
   -0.1420    1.9700   -0.1850 C   0  0  0  0  0
   -0.0930    3.7020   -0.5020 S   0  0  0  0  0
    1.6880    3.9300   -0.7320 C   0  0  0  0  0
   -0.2160   -0.6460    0.2860 N   0  0  0  0  0
   -1.3430    0.0610    0.2790 C   0  0  0  0  0
   -1.3050    1.3680    0.0460 N   0  0  0  0  0
   -2.5510   -0.5640    0.5130 N   0  0  0  0  0
   -3.6600    0.3980    0.4600 C   0  0  0  0  0
   -4.9690   -0.3170    0.8020 C   0  0  0  0  0
   -5.1850   -1.4190   -0.1460 N   0  0  0  0  0
   -4.0760   -2.3810   -0.0930 C   0  0  0  0  0
   -2.7670   -1.6660   -0.4350 C   0  0  0  0  0
    0.4240   -3.0880   -0.7230 H   0  0  0  0  0
    0.5430   -1.6960   -1.8250 H   0  0  0  0  0
    1.4160   -3.2020   -2.1970 H   0  0  0  0  0
    3.5130   -3.6930   -1.1700 H   0  0  0  0  0
    5.4670   -2.8730    0.0790 H   0  0  0  0  0
    5.3410   -0.7560    1.3250 H   0  0  0  0  0
    3.4690    1.7500    0.8750 H   0  0  0  0  0
    2.2310    1.0480    1.9440 H   0  0  0  0  0
    3.9550    0.9020    2.3620 H   0  0  0  0  0
    2.2130    3.6310    0.1750 H   0  0  0  0  0
    2.0270    3.3180   -1.5680 H   0  0  0  0  0
    1.8950    4.9790   -0.9430 H   0  0  0  0  0
   -3.4840    1.1970    1.1800 H   0  0  0  0  0
   -3.7280    0.8200   -0.5430 H   0  0  0  0  0
   -2.8240   -1.2670   -1.4480 H   0  0  0  0  0
   -1.9380   -2.3710   -0.3680 H   0  0  0  0  0
   -4.9120   -0.7160    1.8150 H   0  0  0  0  0
   -5.7980    0.3880    0.7350 H   0  0  0  0  0
   -6.0680   -1.8760    0.0250 H   0  0  0  0  0
   -4.0080   -2.8030    0.9100 H   0  0  0  0  0
   -4.2520   -3.1800   -0.8130 H   0  0  0  0  0
  1  2  1  0  0  0
  1 23  1  0  0  0
  1 24  1  0  0  0
  1 25  1  0  0  0
  2  3  1  0  0  0
  2  8  2  0  0  0
  3  4  2  0  0  0
  3 26  1  0  0  0
  4  5  1  0  0  0
  4 27  1  0  0  0
  5  6  2  0  0  0
  5 28  1  0  0  0
  6  7  1  0  0  0
  6  8  1  0  0  0
  7 29  1  0  0  0
  7 30  1  0  0  0
  7 31  1  0  0  0
  8  9  1  0  0  0
  9 10  1  0  0  0
  9 14  2  0  0  0
 10 11  2  0  0  0
 11 12  1  0  0  0
 11 16  1  0  0  0
 12 13  1  0  0  0
 13 32  1  0  0  0
 13 33  1  0  0  0
 13 34  1  0  0  0
 14 15  1  0  0  0
 15 16  2  0  0  0
 15 17  1  0  0  0
 17 18  1  0  0  0
 17 22  1  0  0  0
 18 19  1  0  0  0
 18 35  1  0  0  0
 18 36  1  0  0  0
 19 20  1  0  0  0
 19 39  1  0  0  0
 19 40  1  0  0  0
 20 21  1  0  0  0
 20 41  1  0  0  0
 21 22  1  0  0  0
 21 42  1  0  0  0
 21 43  1  0  0  0
 22 37  1  0  0  0
 22 38  1  0  0  0
M  END
$$$$
