E10
  CCTOOLS-0919241028

 76 79  0  0  1  0  0  0  0  0999 V2000
   -1.3530    1.0520   11.4170 C   0  0  0  0  0
   -0.2240    0.3300   11.4970 N   0  0  0  0  0
    0.3240   -0.2630   10.3960 C   0  0  0  0  0
   -0.2750   -0.1450    9.1950 C   0  0  0  0  0
   -1.4610    0.6060    9.0780 C   0  0  0  0  0
   -2.0010    1.1980   10.1780 C   0  0  0  0  0
   -1.8180    1.5750   12.4170 O   0  0  0  0  0
    1.6080   -1.0280   10.5940 C   0  0  0  0  0
    0.2590   -0.7930    7.9440 C   0  0  0  0  0
    1.7250   -1.1790    8.1210 C   0  0  0  0  0
    1.8580   -1.9770    9.4250 C   0  0  0  0  0
    0.1390    0.1460    6.8220 N   0  0  0  0  0
    0.1660   -0.6560    5.5930 C   0  0  0  0  0
   -1.5040   -0.9810  -11.3330 C   0  0  0  0  0
   -0.3510   -0.3100  -11.4790 N   0  0  0  0  0
    0.2840    0.2580  -10.4120 C   0  0  0  0  0
   -0.2470    0.1620   -9.1780 C   0  0  0  0  0
   -1.4560   -0.5380   -8.9920 C   0  0  0  0  0
   -2.0820   -1.1070  -10.0580 C   0  0  0  0  0
   -2.0500   -1.4810  -12.3040 O   0  0  0  0  0
    1.5790    0.9790  -10.6870 C   0  0  0  0  0
    0.3890    0.7770   -7.9590 C   0  0  0  0  0
    1.8560    1.1060   -8.2260 C   0  0  0  0  0
    1.9370    1.9090   -9.5300 C   0  0  0  0  0
    0.3010   -0.1680   -6.8380 N   0  0  0  0  0
    0.2740    0.6350   -5.6090 C   0  0  0  0  0
    0.1650    0.2710    4.3770 C   0  0  0  0  0
    0.1930   -0.5650    3.0960 C   0  0  0  0  0
    0.1920    0.3620    1.8800 C   0  0  0  0  0
    0.2200   -0.4740    0.6000 C   0  0  0  0  0
    0.2190    0.4530   -0.6160 C   0  0  0  0  0
    0.2480   -0.3840   -1.8960 C   0  0  0  0  0
    0.2470    0.5440   -3.1120 C   0  0  0  0  0
    0.2750   -0.2930   -4.3930 C   0  0  0  0  0
    0.2120    0.2280   12.3570 H   0  0  0  0  0
   -1.9440    0.7090    8.1170 H   0  0  0  0  0
   -2.9090    1.7780   10.0990 H   0  0  0  0  0
    2.4370   -0.3240   10.6690 H   0  0  0  0  0
    1.5430   -1.6040   11.5170 H   0  0  0  0  0
   -0.3240   -1.6880    7.7270 H   0  0  0  0  0
    2.0480   -1.7930    7.2800 H   0  0  0  0  0
    2.3380   -0.2800    8.1770 H   0  0  0  0  0
    1.1220   -2.7810    9.4400 H   0  0  0  0  0
    2.8610   -2.3950    9.4990 H   0  0  0  0  0
   -0.7820    0.5530    6.8830 H   0  0  0  0  0
    1.0660   -1.2710    5.5810 H   0  0  0  0  0
   -0.7130   -1.2990    5.5600 H   0  0  0  0  0
    0.0390   -0.2260  -12.3630 H   0  0  0  0  0
   -1.8850   -0.6230   -8.0050 H   0  0  0  0  0
   -3.0070   -1.6480   -9.9260 H   0  0  0  0  0
    1.4770    1.5640  -11.6000 H   0  0  0  0  0
    2.3760    0.2460  -10.8180 H   0  0  0  0  0
   -0.1430    1.6920   -7.6990 H   0  0  0  0  0
    2.2550    1.7000   -7.4030 H   0  0  0  0  0
    2.4280    0.1840   -8.3250 H   0  0  0  0  0
    1.2320    2.7390   -9.4950 H   0  0  0  0  0
    2.9490    2.2910   -9.6650 H   0  0  0  0  0
    1.1670   -0.6860   -6.8270 H   0  0  0  0  0
   -0.6250    1.2490   -5.5960 H   0  0  0  0  0
    1.1540    1.2780   -5.5760 H   0  0  0  0  0
   -0.7340    0.8850    4.3890 H   0  0  0  0  0
    1.0440    0.9140    4.4100 H   0  0  0  0  0
    1.0930   -1.1800    3.0840 H   0  0  0  0  0
   -0.6860   -1.2080    3.0630 H   0  0  0  0  0
   -0.7070    0.9760    1.8930 H   0  0  0  0  0
    1.0720    1.0050    1.9130 H   0  0  0  0  0
    1.1200   -1.0890    0.5870 H   0  0  0  0  0
   -0.6580   -1.1170    0.5670 H   0  0  0  0  0
   -0.6800    1.0670   -0.6030 H   0  0  0  0  0
    1.0990    1.0960   -0.5830 H   0  0  0  0  0
    1.1480   -0.9980   -1.9090 H   0  0  0  0  0
   -0.6310   -1.0260   -1.9290 H   0  0  0  0  0
   -0.6520    1.1580   -3.1000 H   0  0  0  0  0
    1.1260    1.1870   -3.0790 H   0  0  0  0  0
    1.1750   -0.9070   -4.4050 H   0  0  0  0  0
   -0.6040   -0.9350   -4.4260 H   0  0  0  0  0
  1  2  1  0  0  0
  1  6  1  0  0  0
  1  7  2  0  0  0
  2  3  1  0  0  0
  2 35  1  0  0  0
  3  4  2  0  0  0
  3  8  1  0  0  0
  4  5  1  0  0  0
  4  9  1  0  0  0
  5  6  2  0  0  0
  5 36  1  0  0  0
  6 37  1  0  0  0
  8 11  1  0  0  0
  8 38  1  0  0  0
  8 39  1  0  0  0
  9 10  1  0  0  0
  9 12  1  0  0  0
  9 40  1  0  0  0
 10 11  1  0  0  0
 10 41  1  0  0  0
 10 42  1  0  0  0
 11 43  1  0  0  0
 11 44  1  0  0  0
 12 13  1  0  0  0
 12 45  1  0  0  0
 13 27  1  0  0  0
 13 46  1  0  0  0
 13 47  1  0  0  0
 14 15  1  0  0  0
 14 19  1  0  0  0
 14 20  2  0  0  0
 15 16  1  0  0  0
 15 48  1  0  0  0
 16 17  2  0  0  0
 16 21  1  0  0  0
 17 18  1  0  0  0
 17 22  1  0  0  0
 18 19  2  0  0  0
 18 49  1  0  0  0
 19 50  1  0  0  0
 21 24  1  0  0  0
 21 51  1  0  0  0
 21 52  1  0  0  0
 22 23  1  0  0  0
 22 25  1  0  0  0
 22 53  1  0  0  0
 23 24  1  0  0  0
 23 54  1  0  0  0
 23 55  1  0  0  0
 24 56  1  0  0  0
 24 57  1  0  0  0
 25 26  1  0  0  0
 25 58  1  0  0  0
 26 34  1  0  0  0
 26 59  1  0  0  0
 26 60  1  0  0  0
 27 28  1  0  0  0
 27 61  1  0  0  0
 27 62  1  0  0  0
 28 29  1  0  0  0
 28 63  1  0  0  0
 28 64  1  0  0  0
 29 30  1  0  0  0
 29 65  1  0  0  0
 29 66  1  0  0  0
 30 31  1  0  0  0
 30 67  1  0  0  0
 30 68  1  0  0  0
 31 32  1  0  0  0
 31 69  1  0  0  0
 31 70  1  0  0  0
 32 33  1  0  0  0
 32 71  1  0  0  0
 32 72  1  0  0  0
 33 34  1  0  0  0
 33 73  1  0  0  0
 33 74  1  0  0  0
 34 75  1  0  0  0
 34 76  1  0  0  0
M  END
$$$$
