E12
  CCTOOLS-0919241028

 82 85  0  0  1  0  0  0  0  0999 V2000
   -1.3580    1.0800   12.6620 C   0  0  0  0  0
   -0.2300    0.3570   12.7450 N   0  0  0  0  0
   -1.8210    1.6100   13.6590 O   0  0  0  0  0
   -0.2860   -0.1310   10.4450 C   0  0  0  0  0
   -1.4710    0.6210   10.3260 C   0  0  0  0  0
    1.8430   -1.9660   10.6820 C   0  0  0  0  0
    0.1250    0.1460    8.0700 N   0  0  0  0  0
    0.1480   -0.6630    6.8450 C   0  0  0  0  0
   -2.0080    1.2210   11.4230 C   0  0  0  0  0
    1.5970   -1.0100   11.8460 C   0  0  0  0  0
    0.2440   -0.7870    9.1970 C   0  0  0  0  0
    1.7110   -1.1750    9.3740 C   0  0  0  0  0
    0.1470    0.2570    5.6240 C   0  0  0  0  0
   -1.5240   -1.0020  -12.5740 C   0  0  0  0  0
    0.3140   -0.2440   11.6460 C   0  0  0  0  0
   -0.3690   -0.3340  -12.7250 N   0  0  0  0  0
    0.2680    0.2390  -11.6620 C   0  0  0  0  0
   -0.2610    0.1500  -10.4260 C   0  0  0  0  0
   -1.4710   -0.5460  -10.2350 C   0  0  0  0  0
   -2.0990   -1.1200  -11.2970 C   0  0  0  0  0
   -2.0720   -1.5060  -13.5410 O   0  0  0  0  0
    1.5650    0.9550  -11.9430 C   0  0  0  0  0
    0.3780    0.7710   -9.2120 C   0  0  0  0  0
    1.8450    1.0960   -9.4830 C   0  0  0  0  0
    1.9260    1.8910  -10.7920 C   0  0  0  0  0
    0.2900   -0.1680   -8.0860 N   0  0  0  0  0
    0.2660    0.6420   -6.8610 C   0  0  0  0  0
    0.1720   -0.5860    4.3480 C   0  0  0  0  0
    0.1710    0.3340    3.1270 C   0  0  0  0  0
    0.1960   -0.5090    1.8510 C   0  0  0  0  0
    0.1950    0.4110    0.6300 C   0  0  0  0  0
    0.2200   -0.4320   -0.6450 C   0  0  0  0  0
    0.2190    0.4880   -1.8670 C   0  0  0  0  0
    0.2430   -0.3550   -3.1420 C   0  0  0  0  0
    0.2430    0.5650   -4.3640 C   0  0  0  0  0
    0.2670   -0.2780   -5.6400 C   0  0  0  0  0
    0.2070    0.2590   13.6050 H   0  0  0  0  0
   -1.9550    0.7200    9.3650 H   0  0  0  0  0
    1.1060   -2.7680   10.7030 H   0  0  0  0  0
    2.8460   -2.3860   10.7570 H   0  0  0  0  0
   -0.7950    0.5550    8.1300 H   0  0  0  0  0
    1.0470   -1.2800    6.8350 H   0  0  0  0  0
   -0.7320   -1.3050    6.8170 H   0  0  0  0  0
   -2.9150    1.8020   11.3420 H   0  0  0  0  0
    2.4280   -0.3070   11.9160 H   0  0  0  0  0
    1.5330   -1.5810   12.7720 H   0  0  0  0  0
   -0.3400   -1.6820    8.9850 H   0  0  0  0  0
    2.0310   -1.7940    8.5360 H   0  0  0  0  0
    2.3260   -0.2770    9.4240 H   0  0  0  0  0
   -0.7500    0.8730    5.6340 H   0  0  0  0  0
    1.0280    0.8980    5.6520 H   0  0  0  0  0
    0.0200   -0.2560  -13.6100 H   0  0  0  0  0
   -1.8990   -0.6240   -9.2470 H   0  0  0  0  0
   -3.0260   -1.6580  -11.1600 H   0  0  0  0  0
    1.4620    1.5360  -12.8590 H   0  0  0  0  0
    2.3600    0.2210  -12.0710 H   0  0  0  0  0
   -0.1510    1.6880   -8.9560 H   0  0  0  0  0
    2.2460    1.6930   -8.6640 H   0  0  0  0  0
    2.4150    0.1720   -9.5780 H   0  0  0  0  0
    1.2220    2.7230  -10.7600 H   0  0  0  0  0
    2.9380    2.2700  -10.9300 H   0  0  0  0  0
    1.1550   -0.6870   -8.0730 H   0  0  0  0  0
   -0.6310    1.2590   -6.8510 H   0  0  0  0  0
    1.1470    1.2830   -6.8330 H   0  0  0  0  0
    1.0710   -1.2030    4.3380 H   0  0  0  0  0
   -0.7080   -1.2280    4.3200 H   0  0  0  0  0
   -0.7270    0.9500    3.1370 H   0  0  0  0  0
    1.0520    0.9750    3.1550 H   0  0  0  0  0
    1.0950   -1.1260    1.8410 H   0  0  0  0  0
   -0.6840   -1.1510    1.8230 H   0  0  0  0  0
   -0.7030    1.0280    0.6400 H   0  0  0  0  0
    1.0760    1.0520    0.6580 H   0  0  0  0  0
    1.1180   -1.0490   -0.6560 H   0  0  0  0  0
   -0.6600   -1.0740   -0.6730 H   0  0  0  0  0
   -0.6790    1.1050   -1.8560 H   0  0  0  0  0
    1.1000    1.1290   -1.8380 H   0  0  0  0  0
    1.1420   -0.9720   -3.1530 H   0  0  0  0  0
   -0.6370   -0.9970   -3.1710 H   0  0  0  0  0
   -0.6550    1.1820   -4.3530 H   0  0  0  0  0
    1.1240    1.2060   -4.3360 H   0  0  0  0  0
    1.1660   -0.8950   -5.6500 H   0  0  0  0  0
   -0.6130   -0.9200   -5.6680 H   0  0  0  0  0
  1  2  1  0  0  0
  1  3  2  0  0  0
  1  9  1  0  0  0
  2 15  1  0  0  0
  2 37  1  0  0  0
  4  5  1  0  0  0
  4 11  1  0  0  0
  4 15  2  0  0  0
  5  9  2  0  0  0
  5 38  1  0  0  0
  6 10  1  0  0  0
  6 12  1  0  0  0
  6 39  1  0  0  0
  6 40  1  0  0  0
  7  8  1  0  0  0
  7 11  1  0  0  0
  7 41  1  0  0  0
  8 13  1  0  0  0
  8 42  1  0  0  0
  8 43  1  0  0  0
  9 44  1  0  0  0
 10 15  1  0  0  0
 10 45  1  0  0  0
 10 46  1  0  0  0
 11 12  1  0  0  0
 11 47  1  0  0  0
 12 48  1  0  0  0
 12 49  1  0  0  0
 13 28  1  0  0  0
 13 50  1  0  0  0
 13 51  1  0  0  0
 14 16  1  0  0  0
 14 20  1  0  0  0
 14 21  2  0  0  0
 16 17  1  0  0  0
 16 52  1  0  0  0
 17 18  2  0  0  0
 17 22  1  0  0  0
 18 19  1  0  0  0
 18 23  1  0  0  0
 19 20  2  0  0  0
 19 53  1  0  0  0
 20 54  1  0  0  0
 22 25  1  0  0  0
 22 55  1  0  0  0
 22 56  1  0  0  0
 23 24  1  0  0  0
 23 26  1  0  0  0
 23 57  1  0  0  0
 24 25  1  0  0  0
 24 58  1  0  0  0
 24 59  1  0  0  0
 25 60  1  0  0  0
 25 61  1  0  0  0
 26 27  1  0  0  0
 26 62  1  0  0  0
 27 36  1  0  0  0
 27 63  1  0  0  0
 27 64  1  0  0  0
 28 29  1  0  0  0
 28 65  1  0  0  0
 28 66  1  0  0  0
 29 30  1  0  0  0
 29 67  1  0  0  0
 29 68  1  0  0  0
 30 31  1  0  0  0
 30 69  1  0  0  0
 30 70  1  0  0  0
 31 32  1  0  0  0
 31 71  1  0  0  0
 31 72  1  0  0  0
 32 33  1  0  0  0
 32 73  1  0  0  0
 32 74  1  0  0  0
 33 34  1  0  0  0
 33 75  1  0  0  0
 33 76  1  0  0  0
 34 35  1  0  0  0
 34 77  1  0  0  0
 34 78  1  0  0  0
 35 36  1  0  0  0
 35 79  1  0  0  0
 35 80  1  0  0  0
 36 81  1  0  0  0
 36 82  1  0  0  0
M  END
$$$$
