E20
  CCTOOLS-0919241028

 57 60  0  0  1  0  0  0  0  0999 V2000
    0.2570   -0.2520    5.7260 C   0  0  0  0  0
   -1.0950   -0.2720    5.3890 C   0  0  0  0  0
   -1.4790   -0.2660    4.0550 C   0  0  0  0  0
   -0.5270   -0.2470    3.0560 C   0  0  0  0  0
    0.8290   -0.2330    3.3830 C   0  0  0  0  0
    1.2140   -0.2380    4.7350 C   0  0  0  0  0
    1.6550   -0.2130    2.1680 C   0  0  0  0  0
    0.7340   -0.2160    0.9720 C   0  0  0  0  0
   -0.6850   -0.2370    1.5540 C   0  0  0  0  0
    0.9450    1.0470    0.1360 C   0  0  0  0  0
    0.0320    1.0050   -1.0900 C   0  0  0  0  0
    0.1350    2.3290   -1.8520 C   0  0  0  0  0
   -0.6890    2.2360   -3.1370 C   0  0  0  0  0
   -0.1580    1.1700   -3.9920 N   0  0  0  0  0
   -0.3730   -0.0990   -3.2910 C   0  0  0  0  0
    0.4690   -0.1350   -2.0150 C   0  0  0  0  0
   -1.0000    1.1350   -5.1960 C   0  0  0  0  0
   -0.5060    0.0550   -6.1230 C   0  0  0  0  0
   -1.0070   -1.2280   -6.0170 C   0  0  0  0  0
   -0.5540   -2.2190   -6.8680 C   0  0  0  0  0
    0.3990   -1.9260   -7.8250 C   0  0  0  0  0
    0.8990   -0.6420   -7.9320 C   0  0  0  0  0
    0.4430    0.3490   -7.0840 C   0  0  0  0  0
    2.8680   -0.1980    2.1320 O   0  0  0  0  0
    0.6320   -0.2570    7.0340 O   0  0  0  0  0
    2.0610   -0.2450    7.0540 C   0  0  0  0  0
   -2.0380   -0.2920    6.3660 O   0  0  0  0  0
   -3.3090   -0.3020    5.7130 C   0  0  0  0  0
   -2.5280   -0.2770    3.7980 H   0  0  0  0  0
    2.2620   -0.2270    4.9970 H   0  0  0  0  0
    0.9070   -1.1030    0.3640 H   0  0  0  0  0
   -1.2100   -1.1350    1.2270 H   0  0  0  0  0
   -1.2320    0.6510    1.2410 H   0  0  0  0  0
    0.7050    1.9250    0.7370 H   0  0  0  0  0
    1.9850    1.1000   -0.1850 H   0  0  0  0  0
   -0.9980    0.8450   -0.7730 H   0  0  0  0  0
   -0.2470    3.1380   -1.2310 H   0  0  0  0  0
    1.1780    2.5250   -2.1030 H   0  0  0  0  0
   -1.7270    2.0170   -2.8860 H   0  0  0  0  0
   -0.6400    3.1860   -3.6690 H   0  0  0  0  0
   -1.4280   -0.1960   -3.0320 H   0  0  0  0  0
   -0.0830   -0.9250   -3.9400 H   0  0  0  0  0
    1.5220   -0.0140   -2.2700 H   0  0  0  0  0
    0.3240   -1.0900   -1.5090 H   0  0  0  0  0
   -2.0310    0.9270   -4.9120 H   0  0  0  0  0
   -0.9500    2.0990   -5.7020 H   0  0  0  0  0
   -1.7520   -1.4570   -5.2700 H   0  0  0  0  0
   -0.9450   -3.2220   -6.7850 H   0  0  0  0  0
    0.7530   -2.7000   -8.4890 H   0  0  0  0  0
    1.6440   -0.4130   -8.6790 H   0  0  0  0  0
    0.8340    1.3530   -7.1670 H   0  0  0  0  0
    2.4100   -0.2490    8.0860 H   0  0  0  0  0
    2.4390   -1.1290    6.5390 H   0  0  0  0  0
    2.4230    0.6500    6.5510 H   0  0  0  0  0
   -4.1020   -0.3180    6.4610 H   0  0  0  0  0
   -3.4090    0.5910    5.0970 H   0  0  0  0  0
   -3.3870   -1.1880    5.0830 H   0  0  0  0  0
  1  2  2  0  0  0
  1  6  1  0  0  0
  1 25  1  0  0  0
  2  3  1  0  0  0
  2 27  1  0  0  0
  3  4  2  0  0  0
  3 29  1  0  0  0
  4  5  1  0  0  0
  4  9  1  0  0  0
  5  6  2  0  0  0
  5  7  1  0  0  0
  6 30  1  0  0  0
  7  8  1  0  0  0
  7 24  2  0  0  0
  8  9  1  0  0  0
  8 10  1  0  0  0
  8 31  1  0  0  0
  9 32  1  0  0  0
  9 33  1  0  0  0
 10 11  1  0  0  0
 10 34  1  0  0  0
 10 35  1  0  0  0
 11 12  1  0  0  0
 11 16  1  0  0  0
 11 36  1  0  0  0
 12 13  1  0  0  0
 12 37  1  0  0  0
 12 38  1  0  0  0
 13 14  1  0  0  0
 13 39  1  0  0  0
 13 40  1  0  0  0
 14 15  1  0  0  0
 14 17  1  0  0  0
 15 16  1  0  0  0
 15 41  1  0  0  0
 15 42  1  0  0  0
 16 43  1  0  0  0
 16 44  1  0  0  0
 17 18  1  0  0  0
 17 45  1  0  0  0
 17 46  1  0  0  0
 18 19  2  0  0  0
 18 23  1  0  0  0
 19 20  1  0  0  0
 19 47  1  0  0  0
 20 21  2  0  0  0
 20 48  1  0  0  0
 21 22  1  0  0  0
 21 49  1  0  0  0
 22 23  2  0  0  0
 22 50  1  0  0  0
 23 51  1  0  0  0
 25 26  1  0  0  0
 26 52  1  0  0  0
 26 53  1  0  0  0
 26 54  1  0  0  0
 27 28  1  0  0  0
 28 55  1  0  0  0
 28 56  1  0  0  0
 28 57  1  0  0  0
M  END
$$$$
