E4D
  CCTOOLS-0919241029

 62 66  0  0  1  0  0  0  0  0999 V2000
   -0.0050    1.4190   -1.9650 C   0  0  0  0  0
   -1.1120    0.3890   -1.6820 C   0  0  0  0  0
   -0.8860   -0.7540   -2.4800 O   0  0  0  0  0
   -1.0460   -0.5270   -3.8020 C   0  0  0  0  0
   -1.4310   -1.6390   -4.5590 C   0  0  0  0  0
   -1.5740   -1.5560   -5.9250 C   0  0  0  0  0
   -1.3390   -0.3540   -6.5770 C   0  0  0  0  0
   -1.4690   -0.2690   -7.9280 O   0  0  0  0  0
   -0.9700    0.7560   -5.8400 C   0  0  0  0  0
   -0.8300    0.6750   -4.4560 C   0  0  0  0  0
   -0.3760    2.1460   -3.5900 S   0  0  0  0  0
    1.3370    0.7360   -1.9990 C   0  0  0  0  0
    1.7280    0.0380   -3.1270 C   0  0  0  0  0
    2.9610   -0.5820   -3.1640 C   0  0  0  0  0
    3.8030   -0.5160   -2.0630 C   0  0  0  0  0
    5.0140   -1.1310   -2.0940 O   0  0  0  0  0
    3.4080    0.1840   -0.9320 C   0  0  0  0  0
    2.1760    0.8080   -0.9030 C   0  0  0  0  0
   -1.0830    0.0030   -0.2260 C   0  0  0  0  0
   -1.8380    0.7100    0.6900 C   0  0  0  0  0
   -1.8170    0.3540    2.0250 C   0  0  0  0  0
   -1.0290   -0.7060    2.4460 C   0  0  0  0  0
   -0.2680   -1.4100    1.5250 C   0  0  0  0  0
   -0.2960   -1.0540    0.1910 C   0  0  0  0  0
   -1.0030   -1.0540    3.7600 O   0  0  0  0  0
   -1.8780   -0.1550    4.4430 C   0  0  0  0  0
   -1.8940   -0.4940    5.9350 C   0  0  0  0  0
   -0.5360   -0.3660    6.4810 N   0  0  0  0  0
   -0.1760    1.0520    6.3890 C   0  0  0  0  0
    1.2300    1.2660    6.9490 C   0  0  0  0  0
    1.2530    0.8590    8.4260 C   0  0  0  0  0
    0.7600   -0.5860    8.5500 C   0  0  0  0  0
   -0.6220   -0.7040    7.9060 C   0  0  0  0  0
   -0.0100    2.1940   -1.1990 H   0  0  0  0  0
   -2.0830    0.8200   -1.9280 H   0  0  0  0  0
   -1.6190   -2.5800   -4.0620 H   0  0  0  0  0
   -1.8710   -2.4270   -6.4910 H   0  0  0  0  0
   -0.6050   -0.4810   -8.3060 H   0  0  0  0  0
   -0.7900    1.6950   -6.3420 H   0  0  0  0  0
    1.0700   -0.0160   -3.9820 H   0  0  0  0  0
    3.2660   -1.1270   -4.0450 H   0  0  0  0  0
    4.8810   -2.0280   -1.7570 H   0  0  0  0  0
    4.0630    0.2400   -0.0750 H   0  0  0  0  0
    1.8680    1.3530   -0.0230 H   0  0  0  0  0
   -2.4510    1.5360    0.3610 H   0  0  0  0  0
   -2.4110    0.9040    2.7400 H   0  0  0  0  0
    0.3450   -2.2370    1.8510 H   0  0  0  0  0
    0.2950   -1.6020   -0.5260 H   0  0  0  0  0
   -2.8850   -0.2490    4.0380 H   0  0  0  0  0
   -1.5260    0.8670    4.3070 H   0  0  0  0  0
   -2.2460   -1.5170    6.0710 H   0  0  0  0  0
   -2.5610    0.1910    6.4570 H   0  0  0  0  0
   -0.2030    1.3650    5.3460 H   0  0  0  0  0
   -0.8890    1.6440    6.9630 H   0  0  0  0  0
    1.5020    2.3170    6.8570 H   0  0  0  0  0
    1.9410    0.6550    6.3920 H   0  0  0  0  0
    0.5980    1.5170    8.9960 H   0  0  0  0  0
    2.2700    0.9320    8.8090 H   0  0  0  0  0
    0.6970   -0.8600    9.6030 H   0  0  0  0  0
    1.4570   -1.2530    8.0410 H   0  0  0  0  0
   -1.3110   -0.0180    8.4000 H   0  0  0  0  0
   -0.9870   -1.7250    8.0160 H   0  0  0  0  0
  1  2  1  0  0  0
  1 11  1  0  0  0
  1 12  1  0  0  0
  1 34  1  0  0  0
  2  3  1  0  0  0
  2 19  1  0  0  0
  2 35  1  0  0  0
  3  4  1  0  0  0
  4  5  2  0  0  0
  4 10  1  0  0  0
  5  6  1  0  0  0
  5 36  1  0  0  0
  6  7  2  0  0  0
  6 37  1  0  0  0
  7  8  1  0  0  0
  7  9  1  0  0  0
  8 38  1  0  0  0
  9 10  2  0  0  0
  9 39  1  0  0  0
 10 11  1  0  0  0
 12 13  2  0  0  0
 12 18  1  0  0  0
 13 14  1  0  0  0
 13 40  1  0  0  0
 14 15  2  0  0  0
 14 41  1  0  0  0
 15 16  1  0  0  0
 15 17  1  0  0  0
 16 42  1  0  0  0
 17 18  2  0  0  0
 17 43  1  0  0  0
 18 44  1  0  0  0
 19 20  2  0  0  0
 19 24  1  0  0  0
 20 21  1  0  0  0
 20 45  1  0  0  0
 21 22  2  0  0  0
 21 46  1  0  0  0
 22 23  1  0  0  0
 22 25  1  0  0  0
 23 24  2  0  0  0
 23 47  1  0  0  0
 24 48  1  0  0  0
 25 26  1  0  0  0
 26 27  1  0  0  0
 26 49  1  0  0  0
 26 50  1  0  0  0
 27 28  1  0  0  0
 27 51  1  0  0  0
 27 52  1  0  0  0
 28 29  1  0  0  0
 28 33  1  0  0  0
 29 30  1  0  0  0
 29 53  1  0  0  0
 29 54  1  0  0  0
 30 31  1  0  0  0
 30 55  1  0  0  0
 30 56  1  0  0  0
 31 32  1  0  0  0
 31 57  1  0  0  0
 31 58  1  0  0  0
 32 33  1  0  0  0
 32 59  1  0  0  0
 32 60  1  0  0  0
 33 61  1  0  0  0
 33 62  1  0  0  0
M  END
$$$$
