EED
  CCTOOLS-0919241030

 51 54  0  0  1  0  0  0  0  0999 V2000
   -0.3110    0.3260    0.7670 C   0  0  0  0  0
   -1.7860    0.3100    0.5040 C   0  0  0  0  0
   -2.5660   -0.6340    1.1610 C   0  0  0  0  0
   -3.9250   -0.7070    0.9390 C   0  0  0  0  0
   -4.5260    0.1780    0.0570 C   0  0  0  0  0
   -5.8610    0.1020   -0.1840 O   0  0  0  0  0
   -3.7570    1.1380   -0.5770 C   0  0  0  0  0
   -2.3920    1.2180   -0.3420 C   0  0  0  0  0
   -1.6320    2.3330   -1.0140 C   0  0  0  0  0
   -0.2830    2.5530   -0.3260 C   0  0  0  0  0
    0.4280    1.2000   -0.2570 C   0  0  0  0  0
    1.8300    1.3240    0.2740 C   0  0  0  0  0
    2.8250    2.2180   -0.4690 C   0  0  0  0  0
    4.1710    1.7730    0.1740 C   0  0  0  0  0
    3.9510    0.3220    0.6730 C   0  0  0  0  0
    4.9040   -0.5610    0.0830 O   0  0  0  0  0
    2.5330   -0.0520    0.2000 C   0  0  0  0  0
    2.6580   -0.5440   -1.2430 C   0  0  0  0  0
    1.8120   -1.0620    1.0510 C   0  0  0  0  0
    0.2960   -1.0600    0.8560 C   0  0  0  0  0
   -0.1060   -1.9050   -0.3520 C   0  0  0  0  0
    0.4110   -3.2290   -0.2010 O   0  0  0  0  0
    0.0900   -4.1050   -1.2840 C   0  0  0  0  0
   -0.1690    0.8030    1.7470 H   0  0  0  0  0
   -2.1060   -1.3140    1.8620 H   0  0  0  0  0
   -4.5190   -1.4490    1.4530 H   0  0  0  0  0
   -6.4000    0.6410    0.4120 H   0  0  0  0  0
   -4.2240    1.8300   -1.2630 H   0  0  0  0  0
   -1.4650    2.0760   -2.0580 H   0  0  0  0  0
   -2.2170    3.2500   -0.9540 H   0  0  0  0  0
    0.3140    3.2540   -0.9070 H   0  0  0  0  0
   -0.4400    2.9390    0.6790 H   0  0  0  0  0
    0.4030    0.7370   -1.2380 H   0  0  0  0  0
    1.7850    1.6520    1.3290 H   0  0  0  0  0
    2.8180    2.0510   -1.5380 H   0  0  0  0  0
    2.6330    3.2710   -0.2460 H   0  0  0  0  0
    4.9660    1.7980   -0.5690 H   0  0  0  0  0
    4.4150    2.4240    1.0130 H   0  0  0  0  0
    3.9980    0.2780    1.7580 H   0  0  0  0  0
    5.8220   -0.3510    0.3000 H   0  0  0  0  0
    3.3440    0.1040   -1.7890 H   0  0  0  0  0
    3.0410   -1.5640   -1.2470 H   0  0  0  0  0
    1.6790   -0.5210   -1.7210 H   0  0  0  0  0
    2.2030   -2.0660    0.8200 H   0  0  0  0  0
    2.0410   -0.8690    2.1100 H   0  0  0  0  0
   -0.1480   -1.5500    1.7470 H   0  0  0  0  0
   -1.1930   -1.9450   -0.4220 H   0  0  0  0  0
    0.3000   -1.4580   -1.2600 H   0  0  0  0  0
   -0.9930   -4.1910   -1.3730 H   0  0  0  0  0
    0.5000   -3.7030   -2.2100 H   0  0  0  0  0
    0.5180   -5.0890   -1.0930 H   0  0  0  0  0
  1 20  1  0  0  0
  1 11  1  0  0  0
  1  2  1  0  0  0
  1 24  1  0  0  0
  2  3  2  0  0  0
  2  8  1  0  0  0
  3  4  1  0  0  0
  3 25  1  0  0  0
  4  5  2  0  0  0
  4 26  1  0  0  0
  5  7  1  0  0  0
  5  6  1  0  0  0
  6 27  1  0  0  0
  7  8  2  0  0  0
  7 28  1  0  0  0
  8  9  1  0  0  0
  9 10  1  0  0  0
  9 29  1  0  0  0
  9 30  1  0  0  0
 10 11  1  0  0  0
 10 31  1  0  0  0
 10 32  1  0  0  0
 11 12  1  0  0  0
 11 33  1  0  0  0
 12 17  1  0  0  0
 12 13  1  0  0  0
 12 34  1  0  0  0
 13 14  1  0  0  0
 13 35  1  0  0  0
 13 36  1  0  0  0
 14 15  1  0  0  0
 14 37  1  0  0  0
 14 38  1  0  0  0
 15 16  1  0  0  0
 15 17  1  0  0  0
 15 39  1  0  0  0
 16 40  1  0  0  0
 17 19  1  0  0  0
 17 18  1  0  0  0
 18 41  1  0  0  0
 18 42  1  0  0  0
 18 43  1  0  0  0
 19 20  1  0  0  0
 19 44  1  0  0  0
 19 45  1  0  0  0
 20 21  1  0  0  0
 20 46  1  0  0  0
 21 22  1  0  0  0
 21 47  1  0  0  0
 21 48  1  0  0  0
 22 23  1  0  0  0
 23 49  1  0  0  0
 23 50  1  0  0  0
 23 51  1  0  0  0
M  END
$$$$
