EES
  CCTOOLS-0919241030

 27 29  0  0  0  0  0  0  0  0999 V2000
    0.0410   -2.3040    0.2460 CL  0  0  0  0  0
    0.5370   -0.6490    0.0760 C   0  0  0  0  0
    1.8420   -0.1900    0.0310 C   0  0  0  0  0
    3.1120   -0.8000    0.0950 C   0  0  0  0  0
    4.2310   -0.0290    0.0170 C   0  0  0  0  0
    5.4520   -0.6230    0.0800 O   0  0  0  0  0
    4.1540    1.3620   -0.1270 C   0  0  0  0  0
    2.9640    2.0090   -0.1950 C   0  0  0  0  0
    1.7630    1.2720   -0.1200 C   0  0  0  0  0
    0.4790    1.5840   -0.1540 N   0  0  0  0  0
   -0.2780    0.4130   -0.0400 N   0  0  0  0  0
   -1.6790    0.3570   -0.0430 C   0  0  0  0  0
   -2.3290   -0.7250   -0.6230 C   0  0  0  0  0
   -3.7080   -0.7800   -0.6260 C   0  0  0  0  0
   -2.4160    1.3790    0.5380 C   0  0  0  0  0
   -3.7960    1.3230    0.5350 C   0  0  0  0  0
   -4.4450    0.2450   -0.0500 C   0  0  0  0  0
   -5.8030    0.1910   -0.0540 O   0  0  0  0  0
    3.1970   -1.8710    0.2060 H   0  0  0  0  0
    5.8070   -0.8850   -0.7810 H   0  0  0  0  0
    5.0680    1.9360   -0.1850 H   0  0  0  0  0
    2.9350    3.0830   -0.3050 H   0  0  0  0  0
   -1.7560   -1.5220   -1.0720 H   0  0  0  0  0
   -4.2140   -1.6210   -1.0770 H   0  0  0  0  0
   -1.9110    2.2180    0.9940 H   0  0  0  0  0
   -4.3700    2.1180    0.9870 H   0  0  0  0  0
   -6.1810   -0.2490    0.7200 H   0  0  0  0  0
  1  2  1  0  0  0
  2  3  2  0  0  0
  2 11  1  0  0  0
  3  9  1  0  0  0
  3  4  1  0  0  0
  4  5  2  0  0  0
  4 19  1  0  0  0
  5  7  1  0  0  0
  5  6  1  0  0  0
  6 20  1  0  0  0
  7  8  2  0  0  0
  7 21  1  0  0  0
  8  9  1  0  0  0
  8 22  1  0  0  0
  9 10  2  0  0  0
 10 11  1  0  0  0
 11 12  1  0  0  0
 12 15  1  0  0  0
 12 13  2  0  0  0
 13 14  1  0  0  0
 13 23  1  0  0  0
 14 17  2  0  0  0
 14 24  1  0  0  0
 15 16  2  0  0  0
 15 25  1  0  0  0
 16 17  1  0  0  0
 16 26  1  0  0  0
 17 18  1  0  0  0
 18 27  1  0  0  0
M  END
$$$$
