EI1
  CCTOOLS-0919241031

 33 35  0  0  0  0  0  0  0  0999 V2000
   -0.1610   -2.6580    1.2560 C   0  0  0  0  0
    0.1180   -2.1490   -0.1600 C   0  0  0  0  0
    0.5490   -0.7060   -0.1000 C   0  0  0  0  0
    1.8520   -0.2460   -0.0820 C   0  0  0  0  0
    3.1230   -0.8600   -0.1080 C   0  0  0  0  0
    4.2420   -0.0860   -0.0770 C   0  0  0  0  0
    5.4630   -0.6840   -0.1030 O   0  0  0  0  0
    4.1660    1.3110   -0.0180 C   0  0  0  0  0
    2.9760    1.9610    0.0110 C   0  0  0  0  0
    1.7750    1.2220   -0.0200 C   0  0  0  0  0
    0.4910    1.5370   -0.0060 N   0  0  0  0  0
   -0.2660    0.3610   -0.0600 N   0  0  0  0  0
   -1.6670    0.3060   -0.0690 C   0  0  0  0  0
   -2.3990    1.0970    0.8070 C   0  0  0  0  0
   -3.7780    1.0410    0.7980 C   0  0  0  0  0
   -4.4330    0.1960   -0.0860 C   0  0  0  0  0
   -5.7910    0.1420   -0.0950 O   0  0  0  0  0
   -3.7020   -0.5950   -0.9620 C   0  0  0  0  0
   -2.3230   -0.5360   -0.9570 C   0  0  0  0  0
   -0.9580   -2.0650    1.7040 H   0  0  0  0  0
   -0.4660   -3.7040    1.2130 H   0  0  0  0  0
    0.7430   -2.5680    1.8590 H   0  0  0  0  0
    0.9110   -2.7470   -0.6110 H   0  0  0  0  0
   -0.7870   -2.2340   -0.7610 H   0  0  0  0  0
    3.2060   -1.9360   -0.1540 H   0  0  0  0  0
    5.8150   -0.8200   -0.9930 H   0  0  0  0  0
    5.0800    1.8860    0.0060 H   0  0  0  0  0
    2.9480    3.0400    0.0570 H   0  0  0  0  0
   -1.8890    1.7540    1.4950 H   0  0  0  0  0
   -4.3480    1.6560    1.4790 H   0  0  0  0  0
   -6.2060    0.7720   -0.6990 H   0  0  0  0  0
   -4.2130   -1.2530   -1.6500 H   0  0  0  0  0
   -1.7540   -1.1480   -1.6420 H   0  0  0  0  0
  1  2  1  0  0  0
  1 20  1  0  0  0
  1 21  1  0  0  0
  1 22  1  0  0  0
  2  3  1  0  0  0
  2 23  1  0  0  0
  2 24  1  0  0  0
  3 12  1  0  0  0
  3  4  2  0  0  0
  4 10  1  0  0  0
  4  5  1  0  0  0
  5  6  2  0  0  0
  5 25  1  0  0  0
  6  8  1  0  0  0
  6  7  1  0  0  0
  7 26  1  0  0  0
  8  9  2  0  0  0
  8 27  1  0  0  0
  9 10  1  0  0  0
  9 28  1  0  0  0
 10 11  2  0  0  0
 11 12  1  0  0  0
 12 13  1  0  0  0
 13 14  2  0  0  0
 13 19  1  0  0  0
 14 15  1  0  0  0
 14 29  1  0  0  0
 15 16  2  0  0  0
 15 30  1  0  0  0
 16 17  1  0  0  0
 16 18  1  0  0  0
 17 31  1  0  0  0
 18 19  2  0  0  0
 18 32  1  0  0  0
 19 33  1  0  0  0
M  END
$$$$
