EMB
  CCTOOLS-0919241031

 16 15  0  0  0  0  0  0  0  0999 V2000
   -0.4070    0.0000    3.1560 C   0  0  0  0  0
    0.4300    0.0000    1.8750 C   0  0  0  0  0
   -0.4500    0.0000    0.7210 O   0  0  0  0  0
    0.0680    0.0000   -0.5210 C   0  0  0  0  0
    1.2730    0.0000   -0.6760 O   0  0  0  0  0
   -0.7490    0.0000   -1.5920 N   0  0  0  0  0
   -0.1840    0.0000   -2.9440 C   0  0  0  0  0
   -1.0360   -0.8900    3.1780 H   0  0  0  0  0
    0.2540    0.0000    4.0220 H   0  0  0  0  0
   -1.0360    0.8900    3.1780 H   0  0  0  0  0
    1.0590    0.8900    1.8520 H   0  0  0  0  0
    1.0590   -0.8900    1.8520 H   0  0  0  0  0
   -1.7110    0.0000   -1.4680 H   0  0  0  0  0
   -0.9930    0.0000   -3.6750 H   0  0  0  0  0
    0.4290    0.8900   -3.0820 H   0  0  0  0  0
    0.4290   -0.8900   -3.0820 H   0  0  0  0  0
  1  2  1  0  0  0
  1  8  1  0  0  0
  1  9  1  0  0  0
  1 10  1  0  0  0
  2  3  1  0  0  0
  2 11  1  0  0  0
  2 12  1  0  0  0
  3  4  1  0  0  0
  4  5  2  0  0  0
  4  6  1  0  0  0
  6  7  1  0  0  0
  6 13  1  0  0  0
  7 14  1  0  0  0
  7 15  1  0  0  0
  7 16  1  0  0  0
M  END
$$$$
