EN5
  CCTOOLS-0919241031

 89 89  0  0  1  0  0  0  0  0999 V2000
   14.0570   -0.1850    0.5720 C   0  0  0  0  0
   15.2610   -0.3300   -0.2580 N   0  0  0  0  0
    2.9610   -1.0070   -1.4340 O   0  0  0  0  0
   12.8130   -0.4190   -0.2880 C   0  0  0  0  0
    1.6170   -0.6650    0.2980 N   0  0  0  0  0
   -0.2110   -2.8720    0.7020 O   0  0  0  0  0
   11.5600   -0.2680    0.5770 C   0  0  0  0  0
   -1.9610   -0.2420   -0.4990 N   0  0  0  0  0
   -0.6080    0.4570    1.1150 O   0  0  0  0  0
   10.3160   -0.5020   -0.2830 C   0  0  0  0  0
   -0.6730    6.2060   -0.2050 N   0  0  0  0  0
   -4.3400   -1.1920   -1.0600 O   0  0  0  0  0
    9.0630   -0.3510    0.5820 C   0  0  0  0  0
   -5.5690    0.2430    0.1020 N   0  0  0  0  0
    7.8190   -0.5850   -0.2780 C   0  0  0  0  0
    6.5660   -0.4340    0.5870 C   0  0  0  0  0
    5.3220   -0.6680   -0.2730 C   0  0  0  0  0
    4.0690   -0.5170    0.5920 C   0  0  0  0  0
    2.8440   -0.7470   -0.2550 C   0  0  0  0  0
    0.4260   -0.8890   -0.5250 C   0  0  0  0  0
    0.1320   -2.3890   -0.5990 C   0  0  0  0  0
   -0.7500   -0.1760    0.0900 C   0  0  0  0  0
   -3.1050    0.4520    0.0980 C   0  0  0  0  0
   -3.1190    1.9080   -0.3690 C   0  0  0  0  0
   -1.8820    2.6290    0.1710 C   0  0  0  0  0
   -1.8960    4.0860   -0.2960 C   0  0  0  0  0
   -0.6590    4.8070    0.2430 C   0  0  0  0  0
   -4.3820   -0.2250   -0.3290 C   0  0  0  0  0
   -6.8110   -0.4150   -0.3130 C   0  0  0  0  0
   -8.0050    0.3090    0.3110 C   0  0  0  0  0
   -9.3020   -0.3780   -0.1230 C   0  0  0  0  0
  -10.5000    0.4180    0.3980 C   0  0  0  0  0
  -11.7960   -0.2700   -0.0360 C   0  0  0  0  0
  -11.8380   -1.6880    0.5370 C   0  0  0  0  0
  -10.6400   -2.4840    0.0160 C   0  0  0  0  0
   -9.3430   -1.7960    0.4500 C   0  0  0  0  0
   14.0830   -0.9160    1.3800 H   0  0  0  0  0
   14.0250    0.8200    0.9930 H   0  0  0  0  0
   15.2300    0.2930   -1.0510 H   0  0  0  0  0
   16.0960   -0.1800    0.2870 H   0  0  0  0  0
   12.7880    0.3120   -1.0960 H   0  0  0  0  0
   12.8460   -1.4240   -0.7080 H   0  0  0  0  0
    1.5230   -0.4580    1.2410 H   0  0  0  0  0
   -0.4110   -3.8170    0.7300 H   0  0  0  0  0
   11.5860   -0.9990    1.3850 H   0  0  0  0  0
   11.5280    0.7370    0.9980 H   0  0  0  0  0
   -2.0750   -0.7480   -1.3190 H   0  0  0  0  0
   10.2900    0.2290   -1.0910 H   0  0  0  0  0
   10.3490   -1.5070   -0.7030 H   0  0  0  0  0
    0.1350    6.7030    0.1390 H   0  0  0  0  0
   -0.7320    6.2620   -1.2110 H   0  0  0  0  0
    9.0890   -1.0820    1.3900 H   0  0  0  0  0
    9.0310    0.6540    1.0030 H   0  0  0  0  0
   -5.6030    1.0160    0.6870 H   0  0  0  0  0
    7.7930    0.1460   -1.0860 H   0  0  0  0  0
    7.8520   -1.5900   -0.6980 H   0  0  0  0  0
    6.5920   -1.1650    1.3950 H   0  0  0  0  0
    6.5340    0.5710    1.0080 H   0  0  0  0  0
    5.2960    0.0630   -1.0810 H   0  0  0  0  0
    5.3550   -1.6730   -0.6930 H   0  0  0  0  0
    4.0950   -1.2480    1.4000 H   0  0  0  0  0
    4.0360    0.4880    1.0130 H   0  0  0  0  0
    0.6010   -0.5030   -1.5290 H   0  0  0  0  0
    1.0150   -2.9150   -0.9610 H   0  0  0  0  0
   -0.7000   -2.5620   -1.2820 H   0  0  0  0  0
   -3.0220    0.4190    1.1850 H   0  0  0  0  0
   -3.1120    1.9410   -1.4580 H   0  0  0  0  0
   -4.0170    2.4010    0.0040 H   0  0  0  0  0
   -1.8890    2.5970    1.2600 H   0  0  0  0  0
   -0.9840    2.1370   -0.2010 H   0  0  0  0  0
   -1.8890    4.1190   -1.3860 H   0  0  0  0  0
   -2.7950    4.5780    0.0760 H   0  0  0  0  0
    0.2390    4.3150   -0.1290 H   0  0  0  0  0
   -0.6660    4.7740    1.3330 H   0  0  0  0  0
   -6.8930   -0.3830   -1.4000 H   0  0  0  0  0
   -6.8010   -1.4530    0.0200 H   0  0  0  0  0
   -7.9230    0.2760    1.3970 H   0  0  0  0  0
   -8.0160    1.3470   -0.0220 H   0  0  0  0  0
   -9.3420   -0.4250   -1.2110 H   0  0  0  0  0
  -10.4600    0.4640    1.4870 H   0  0  0  0  0
  -10.4700    1.4280   -0.0100 H   0  0  0  0  0
  -12.6500    0.2970    0.3360 H   0  0  0  0  0
  -11.8360   -0.3160   -1.1240 H   0  0  0  0  0
  -11.7980   -1.6410    1.6260 H   0  0  0  0  0
  -12.7620   -2.1780    0.2280 H   0  0  0  0  0
  -10.6690   -3.4940    0.4250 H   0  0  0  0  0
  -10.6800   -2.5300   -1.0720 H   0  0  0  0  0
   -8.4900   -2.3640    0.0790 H   0  0  0  0  0
   -9.3030   -1.7500    1.5380 H   0  0  0  0  0
  1  4  1  0  0  0
  1 37  1  0  0  0
  1 38  1  0  0  0
  2  1  1  0  0  0
  2 39  1  0  0  0
  2 40  1  0  0  0
  3 19  2  0  0  0
  4 41  1  0  0  0
  4 42  1  0  0  0
  5 43  1  0  0  0
  6 21  1  0  0  0
  6 44  1  0  0  0
  7  4  1  0  0  0
  7 10  1  0  0  0
  7 45  1  0  0  0
  7 46  1  0  0  0
  8 23  1  0  0  0
  8 47  1  0  0  0
 10 13  1  0  0  0
 10 48  1  0  0  0
 10 49  1  0  0  0
 11 27  1  0  0  0
 11 50  1  0  0  0
 11 51  1  0  0  0
 12 28  2  0  0  0
 13 15  1  0  0  0
 13 52  1  0  0  0
 13 53  1  0  0  0
 14 54  1  0  0  0
 15 16  1  0  0  0
 15 55  1  0  0  0
 15 56  1  0  0  0
 16 17  1  0  0  0
 16 57  1  0  0  0
 16 58  1  0  0  0
 17 18  1  0  0  0
 17 59  1  0  0  0
 17 60  1  0  0  0
 18 61  1  0  0  0
 18 62  1  0  0  0
 19  5  1  0  0  0
 19 18  1  0  0  0
 20  5  1  0  0  0
 20 22  1  0  0  0
 20 63  1  0  0  0
 21 20  1  0  0  0
 21 64  1  0  0  0
 21 65  1  0  0  0
 22  8  1  0  0  0
 22  9  2  0  0  0
 23 24  1  0  0  0
 23 66  1  0  0  0
 24 67  1  0  0  0
 24 68  1  0  0  0
 25 24  1  0  0  0
 25 26  1  0  0  0
 25 69  1  0  0  0
 25 70  1  0  0  0
 26 71  1  0  0  0
 26 72  1  0  0  0
 27 26  1  0  0  0
 27 73  1  0  0  0
 27 74  1  0  0  0
 28 14  1  0  0  0
 28 23  1  0  0  0
 29 14  1  0  0  0
 29 30  1  0  0  0
 29 75  1  0  0  0
 29 76  1  0  0  0
 30 77  1  0  0  0
 30 78  1  0  0  0
 31 30  1  0  0  0
 31 32  1  0  0  0
 31 79  1  0  0  0
 32 80  1  0  0  0
 32 81  1  0  0  0
 33 32  1  0  0  0
 33 82  1  0  0  0
 33 83  1  0  0  0
 34 33  1  0  0  0
 34 84  1  0  0  0
 34 85  1  0  0  0
 35 34  1  0  0  0
 35 36  1  0  0  0
 35 86  1  0  0  0
 35 87  1  0  0  0
 36 31  1  0  0  0
 36 88  1  0  0  0
 36 89  1  0  0  0
M  END
$$$$
