ENF
  CCTOOLS-0919241031

130130  0  0  1  0  0  0  0  0999 V2000
    7.0260    0.1970   -0.6040 C   0  0  0  0  0
    8.2280    0.3500    0.2190 N   0  0  0  0  0
   -4.0650    1.0150    1.4290 O   0  0  0  0  0
    5.7840    0.4350    0.2570 C   0  0  0  0  0
   -5.4140    0.6580   -0.2970 N   0  0  0  0  0
   -7.2470    2.8580   -0.7110 O   0  0  0  0  0
    4.5290    0.2760   -0.6020 C   0  0  0  0  0
   -8.9890    0.2350    0.5150 N   0  0  0  0  0
   -7.6400   -0.4740   -1.0980 O   0  0  0  0  0
    3.2870    0.5140    0.2590 C   0  0  0  0  0
   -7.6910   -6.2130    0.2670 N   0  0  0  0  0
  -11.3680    1.1850    1.0760 O   0  0  0  0  0
    2.0310    0.3540   -0.6000 C   0  0  0  0  0
  -12.5990   -0.2610   -0.0720 N   0  0  0  0  0
    0.7900    0.5930    0.2610 C   0  0  0  0  0
   -0.4660    0.4330   -0.5990 C   0  0  0  0  0
   -1.7080    0.6720    0.2630 C   0  0  0  0  0
   -2.9630    0.5120   -0.5970 C   0  0  0  0  0
   -4.1860    0.7470    0.2520 C   0  0  0  0  0
   -6.6030    0.8860    0.5280 C   0  0  0  0  0
   -6.9000    2.3860    0.5920 C   0  0  0  0  0
   -7.7800    0.1670   -0.0770 C   0  0  0  0  0
  -10.1340   -0.4650   -0.0740 C   0  0  0  0  0
  -10.1440   -1.9180    0.4040 C   0  0  0  0  0
   -8.9070   -2.6410   -0.1330 C   0  0  0  0  0
   -8.9180   -4.0940    0.3450 C   0  0  0  0  0
   -7.6810   -4.8170   -0.1930 C   0  0  0  0  0
  -11.4100    0.2130    0.3520 C   0  0  0  0  0
  -13.8400    0.3980    0.3420 C   0  0  0  0  0
  -15.0350   -0.3320   -0.2730 C   0  0  0  0  0
  -16.3310    0.3560    0.1590 C   0  0  0  0  0
  -16.3770    1.7700   -0.4240 C   0  0  0  0  0
  -17.6730    2.4580    0.0080 C   0  0  0  0  0
  -18.8720    1.6560   -0.5030 C   0  0  0  0  0
  -18.8260    0.2430    0.0810 C   0  0  0  0  0
  -17.5300   -0.4460   -0.3520 C   0  0  0  0  0
    9.4470    0.1840   -0.3310 C   0  0  0  0  0
    9.5490   -0.0910   -1.5080 O   0  0  0  0  0
   10.6840    0.3410    0.5160 C   0  0  0  0  0
   11.9250    0.1030   -0.3460 C   0  0  0  0  0
   13.1810    0.2630    0.5140 C   0  0  0  0  0
   14.4230    0.0240   -0.3480 C   0  0  0  0  0
   15.6780    0.1840    0.5120 C   0  0  0  0  0
   16.9200   -0.0540   -0.3500 C   0  0  0  0  0
   18.1750    0.1050    0.5100 C   0  0  0  0  0
   19.4170   -0.1330   -0.3520 C   0  0  0  0  0
   20.6730    0.0260    0.5080 C   0  0  0  0  0
   21.9140   -0.2120   -0.3530 C   0  0  0  0  0
   23.1700   -0.0520    0.5060 C   0  0  0  0  0
   24.4120   -0.2900   -0.3550 C   0  0  0  0  0
   25.6670   -0.1310    0.5040 C   0  0  0  0  0
    7.0480    0.9220   -1.4180 H   0  0  0  0  0
    6.9940   -0.8110   -1.0170 H   0  0  0  0  0
    8.1470    0.5700    1.1600 H   0  0  0  0  0
    5.7620   -0.2900    1.0710 H   0  0  0  0  0
    5.8160    1.4440    0.6700 H   0  0  0  0  0
   -5.5110    0.4440   -1.2380 H   0  0  0  0  0
   -7.4490    3.8030   -0.7470 H   0  0  0  0  0
    4.5510    1.0010   -1.4160 H   0  0  0  0  0
    4.4970   -0.7330   -1.0150 H   0  0  0  0  0
   -9.1010    0.7470    1.3310 H   0  0  0  0  0
    3.2650   -0.2110    1.0730 H   0  0  0  0  0
    3.3190    1.5230    0.6720 H   0  0  0  0  0
   -6.8840   -6.7120   -0.0760 H   0  0  0  0  0
   -7.7470   -6.2610    1.2730 H   0  0  0  0  0
    2.0540    1.0790   -1.4140 H   0  0  0  0  0
  -12.6320   -1.0380   -0.6510 H   0  0  0  0  0
    0.7670   -0.1320    1.0750 H   0  0  0  0  0
   -0.4440    1.1580   -1.4120 H   0  0  0  0  0
   -0.4980   -0.5750   -1.0110 H   0  0  0  0  0
   -1.7300   -0.0530    1.0770 H   0  0  0  0  0
   -1.6760    1.6800    0.6760 H   0  0  0  0  0
   -2.9410    1.2370   -1.4100 H   0  0  0  0  0
   -2.9950   -0.4960   -1.0090 H   0  0  0  0  0
   -6.4250    0.5080    1.5350 H   0  0  0  0  0
   -6.0160    2.9170    0.9470 H   0  0  0  0  0
   -7.7290    2.5640    1.2760 H   0  0  0  0  0
  -10.0540   -0.4410   -1.1610 H   0  0  0  0  0
  -10.1340   -1.9420    1.4940 H   0  0  0  0  0
  -11.0430   -2.4150    0.0390 H   0  0  0  0  0
   -8.9180   -2.6170   -1.2230 H   0  0  0  0  0
   -8.0090   -2.1450    0.2330 H   0  0  0  0  0
   -8.9070   -4.1180    1.4350 H   0  0  0  0  0
   -9.8160   -4.5910   -0.0210 H   0  0  0  0  0
   -6.7820   -4.3210    0.1730 H   0  0  0  0  0
   -7.6920   -4.7930   -1.2820 H   0  0  0  0  0
  -13.9190    0.3740    1.4290 H   0  0  0  0  0
  -13.8330    1.4340    0.0010 H   0  0  0  0  0
  -14.9560   -0.3080   -1.3600 H   0  0  0  0  0
  -15.0430   -1.3680    0.0680 H   0  0  0  0  0
  -16.3680    0.4110    1.2470 H   0  0  0  0  0
  -15.5230    2.3410   -0.0600 H   0  0  0  0  0
  -16.3400    1.7150   -1.5120 H   0  0  0  0  0
  -17.7100    2.5130    1.0960 H   0  0  0  0  0
  -17.7060    3.4650   -0.4080 H   0  0  0  0  0
  -19.7950    2.1470   -0.1950 H   0  0  0  0  0
  -18.8350    1.6010   -1.5910 H   0  0  0  0  0
  -18.8630    0.2970    1.1690 H   0  0  0  0  0
  -19.6800   -0.3290   -0.2840 H   0  0  0  0  0
  -17.4930   -0.5010   -1.4400 H   0  0  0  0  0
  -17.4970   -1.4530    0.0640 H   0  0  0  0  0
   10.7160    1.3500    0.9280 H   0  0  0  0  0
   10.6610   -0.3840    1.3290 H   0  0  0  0  0
   11.8930   -0.9050   -0.7590 H   0  0  0  0  0
   11.9480    0.8280   -1.1600 H   0  0  0  0  0
   13.2130    1.2710    0.9260 H   0  0  0  0  0
   13.1590   -0.4620    1.3270 H   0  0  0  0  0
   14.3910   -0.9840   -0.7600 H   0  0  0  0  0
   14.4450    0.7490   -1.1610 H   0  0  0  0  0
   15.7100    1.1920    0.9240 H   0  0  0  0  0
   15.6560   -0.5410    1.3260 H   0  0  0  0  0
   16.8880   -1.0630   -0.7620 H   0  0  0  0  0
   16.9420    0.6710   -1.1630 H   0  0  0  0  0
   18.2080    1.1140    0.9230 H   0  0  0  0  0
   18.1530   -0.6200    1.3240 H   0  0  0  0  0
   19.3850   -1.1410   -0.7640 H   0  0  0  0  0
   19.4390    0.5920   -1.1650 H   0  0  0  0  0
   20.7050    1.0350    0.9210 H   0  0  0  0  0
   20.6500   -0.6980    1.3220 H   0  0  0  0  0
   21.8820   -1.2200   -0.7660 H   0  0  0  0  0
   21.9370    0.5130   -1.1670 H   0  0  0  0  0
   23.2020    0.9560    0.9190 H   0  0  0  0  0
   23.1480   -0.7770    1.3200 H   0  0  0  0  0
   24.3790   -1.2990   -0.7680 H   0  0  0  0  0
   24.4340    0.4340   -1.1690 H   0  0  0  0  0
   25.6990    0.8770    0.9170 H   0  0  0  0  0
   25.6450   -0.8560    1.3180 H   0  0  0  0  0
   26.5520   -0.3010   -0.1090 H   0  0  0  0  0
    1.9990   -0.6540   -1.0130 H   0  0  0  0  0
    0.8220    1.6010    0.6740 H   0  0  0  0  0
  1  4  1  0  0  0
  1 52  1  0  0  0
  1 53  1  0  0  0
  2  1  1  0  0  0
  2 54  1  0  0  0
  3 19  2  0  0  0
  4 55  1  0  0  0
  4 56  1  0  0  0
  5 57  1  0  0  0
  6 21  1  0  0  0
  6 58  1  0  0  0
  7  4  1  0  0  0
  7 10  1  0  0  0
  7 59  1  0  0  0
  7 60  1  0  0  0
  8 23  1  0  0  0
  8 61  1  0  0  0
 10 62  1  0  0  0
 10 63  1  0  0  0
 11 27  1  0  0  0
 11 64  1  0  0  0
 11 65  1  0  0  0
 12 28  2  0  0  0
 13 10  1  0  0  0
 13 15  1  0  0  0
 13 66  1  0  0  0
 13129  1  0  0  0
 14 67  1  0  0  0
 15 16  1  0  0  0
 15 68  1  0  0  0
 15130  1  0  0  0
 16 17  1  0  0  0
 16 69  1  0  0  0
 16 70  1  0  0  0
 17 18  1  0  0  0
 17 71  1  0  0  0
 17 72  1  0  0  0
 18 73  1  0  0  0
 18 74  1  0  0  0
 19  5  1  0  0  0
 19 18  1  0  0  0
 20  5  1  0  0  0
 20 22  1  0  0  0
 20 75  1  0  0  0
 21 20  1  0  0  0
 21 76  1  0  0  0
 21 77  1  0  0  0
 22  8  1  0  0  0
 22  9  2  0  0  0
 23 24  1  0  0  0
 23 78  1  0  0  0
 24 79  1  0  0  0
 24 80  1  0  0  0
 25 24  1  0  0  0
 25 26  1  0  0  0
 25 81  1  0  0  0
 25 82  1  0  0  0
 26 83  1  0  0  0
 26 84  1  0  0  0
 27 26  1  0  0  0
 27 85  1  0  0  0
 27 86  1  0  0  0
 28 14  1  0  0  0
 28 23  1  0  0  0
 29 14  1  0  0  0
 29 30  1  0  0  0
 29 87  1  0  0  0
 29 88  1  0  0  0
 30 89  1  0  0  0
 30 90  1  0  0  0
 31 30  1  0  0  0
 31 36  1  0  0  0
 31 91  1  0  0  0
 32 31  1  0  0  0
 32 92  1  0  0  0
 32 93  1  0  0  0
 33 32  1  0  0  0
 33 34  1  0  0  0
 33 94  1  0  0  0
 33 95  1  0  0  0
 34 35  1  0  0  0
 34 96  1  0  0  0
 34 97  1  0  0  0
 35 36  1  0  0  0
 35 98  1  0  0  0
 35 99  1  0  0  0
 36100  1  0  0  0
 36101  1  0  0  0
 37  2  1  0  0  0
 37 38  2  0  0  0
 39 37  1  0  0  0
 39102  1  0  0  0
 39103  1  0  0  0
 40 39  1  0  0  0
 40104  1  0  0  0
 40105  1  0  0  0
 41 40  1  0  0  0
 41106  1  0  0  0
 41107  1  0  0  0
 42 41  1  0  0  0
 42108  1  0  0  0
 42109  1  0  0  0
 43 42  1  0  0  0
 43110  1  0  0  0
 43111  1  0  0  0
 44 43  1  0  0  0
 44112  1  0  0  0
 44113  1  0  0  0
 45 44  1  0  0  0
 45114  1  0  0  0
 45115  1  0  0  0
 46 45  1  0  0  0
 46 47  1  0  0  0
 46116  1  0  0  0
 46117  1  0  0  0
 47118  1  0  0  0
 47119  1  0  0  0
 48 47  1  0  0  0
 48120  1  0  0  0
 48121  1  0  0  0
 49 48  1  0  0  0
 49122  1  0  0  0
 49123  1  0  0  0
 50 49  1  0  0  0
 50124  1  0  0  0
 50125  1  0  0  0
 51 50  1  0  0  0
 51126  1  0  0  0
 51127  1  0  0  0
 51128  1  0  0  0
M  END
$$$$
