ENO
  CCTOOLS-1004241129

 21 21  0  0  0  0  0  0  0  0999 V2000
    1.2780    0.0120    1.2640 O   0  0  0  0  0
   -0.4070   -1.2020   -1.2350 C   0  0  0  0  0
   -0.0130   -1.2010   -2.5600 C   0  0  0  0  0
    0.1710    0.0010   -3.2260 C   0  0  0  0  0
   -0.0380    1.2000   -2.5600 C   0  0  0  0  0
   -0.4360    1.1930   -1.2370 C   0  0  0  0  0
   -0.6150   -0.0060   -0.5740 C   0  0  0  0  0
    0.5580    0.0050   -4.5290 O   0  0  0  0  0
   -1.0430   -0.0100    0.8700 C   0  0  0  0  0
    0.1750    0.0010    1.7560 C   0  0  0  0  0
    0.0190    0.0000    3.2380 C   0  0  0  0  0
   -1.0880   -0.0100    3.7320 O   0  0  0  0  0
    1.1080    0.0110    4.0290 O   0  0  0  0  0
   -0.5510   -2.1380   -0.7160 H   0  0  0  0  0
    0.1490   -2.1350   -3.0760 H   0  0  0  0  0
    0.1060    2.1380   -3.0760 H   0  0  0  0  0
   -0.6000    2.1260   -0.7180 H   0  0  0  0  0
   -0.2490   -0.0020   -5.0600 H   0  0  0  0  0
   -1.6300   -0.9060    1.0720 H   0  0  0  0  0
   -1.6480    0.8730    1.0720 H   0  0  0  0  0
    1.0070    0.0100    4.9910 H   0  0  0  0  0
  1 10  2  0  0  0
  2  3  2  0  0  0
  2  7  1  0  0  0
  2 14  1  0  0  0
  3  4  1  0  0  0
  3 15  1  0  0  0
  4  5  2  0  0  0
  4  8  1  0  0  0
  5  6  1  0  0  0
  5 16  1  0  0  0
  6  7  2  0  0  0
  6 17  1  0  0  0
  7  9  1  0  0  0
  8 18  1  0  0  0
  9 10  1  0  0  0
  9 19  1  0  0  0
  9 20  1  0  0  0
 10 11  1  0  0  0
 11 12  2  0  0  0
 11 13  1  0  0  0
 13 21  1  0  0  0
M  END
$$$$
