ENX
  CCTOOLS-0919241031

 92 92  0  0  1  0  0  0  0  0999 V2000
  -10.6930   -5.0330   -2.9570 C   0  0  0  0  0
  -11.6530   -4.0450   -2.2920 C   0  0  0  0  0
  -10.9560   -3.3620   -1.1440 C   0  0  0  0  0
  -10.9030   -2.0540   -1.0960 C   0  0  0  0  0
  -10.2050   -1.3700    0.0520 C   0  0  0  0  0
   -9.1370   -0.4210   -0.4930 C   0  0  0  0  0
   -8.3450    0.1790    0.6700 C   0  0  0  0  0
   -7.3610    1.2220    0.1350 C   0  0  0  0  0
   -6.4970    1.7230    1.2630 C   0  0  0  0  0
   -5.4400    2.7630    0.9970 C   0  0  0  0  0
   -4.2520    2.1130    0.2860 C   0  0  0  0  0
   -3.1280    3.1390    0.1270 C   0  0  0  0  0
   -1.9580    2.4980   -0.5740 C   0  0  0  0  0
   -0.7660    2.4340    0.0340 C   0  0  0  0  0
    0.3330    1.8320   -0.6240 C   0  0  0  0  0
    1.5430    1.7680   -0.0070 C   0  0  0  0  0
    2.6340    1.1700   -0.6600 C   0  0  0  0  0
    3.8490    1.1050   -0.0410 C   0  0  0  0  0
    4.9370    0.5090   -0.6930 C   0  0  0  0  0
    6.1620    0.4440   -0.0680 C   0  0  0  0  0
    7.2500   -0.1520   -0.7200 C   0  0  0  0  0
    8.4640   -0.2170   -0.1010 C   0  0  0  0  0
    9.5580   -0.8160   -0.7560 C   0  0  0  0  0
   10.7600   -0.8800   -0.1430 O   0  0  0  0  0
   11.8250   -1.5010   -0.8660 C   0  0  0  0  0
   12.7990   -2.1510    0.1190 C   0  0  0  0  0
   13.3710   -1.0800    1.0510 C   0  0  0  0  0
   14.3310   -1.7200    2.0210 C   0  0  0  0  0
   -9.5780   -2.3680    0.9010 O   0  0  0  0  0
   -9.9290    0.9030   -1.4270 CL  0  0  0  0  0
   -9.2460    0.8020    1.5880 O   0  0  0  0  0
   -5.0030    3.3260    2.2360 O   0  0  0  0  0
   -3.7820    1.0070    1.0590 O   0  0  0  0  0
   -3.6320    4.3230   -0.7000 C   0  0  0  0  0
   -2.1550    1.8410   -2.1690 CL  0  0  0  0  0
    4.0200    1.6750    1.3440 C   0  0  0  0  0
    9.4200   -1.2760   -1.8750 O   0  0  0  0  0
   12.5630   -0.4470   -1.6930 C   0  0  0  0  0
   13.1350    0.6230   -0.7620 C   0  0  0  0  0
   14.1090   -0.0260    0.2230 C   0  0  0  0  0
   11.6530    0.1600   -2.6130 O   0  0  0  0  0
  -10.3180   -2.8610    1.9120 C   0  0  0  0  0
   -9.7960   -3.7900    2.7370 N   0  0  0  0  0
  -11.4550   -2.4700    2.0800 O   0  0  0  0  0
   -6.6530    1.2920    2.3800 O   0  0  0  0  0
   14.5360   -2.9100    1.9720 O   0  0  0  0  0
   14.9580   -0.9680    2.9390 O   0  0  0  0  0
   -9.8210   -4.4960   -3.3300 H   0  0  0  0  0
  -10.3760   -5.7790   -2.2280 H   0  0  0  0  0
  -11.1970   -5.5280   -3.7870 H   0  0  0  0  0
  -11.9700   -3.3000   -3.0210 H   0  0  0  0  0
  -12.5260   -4.5820   -1.9190 H   0  0  0  0  0
  -10.5000   -3.9500   -0.3610 H   0  0  0  0  0
  -11.3580   -1.4650   -1.8780 H   0  0  0  0  0
  -10.9320   -0.8030    0.6330 H   0  0  0  0  0
   -8.4600   -0.9710   -1.1470 H   0  0  0  0  0
   -7.7950   -0.6110    1.1810 H   0  0  0  0  0
   -6.7320    0.7670   -0.6310 H   0  0  0  0  0
   -7.9150    2.0550   -0.2980 H   0  0  0  0  0
   -5.8540    3.5500    0.3670 H   0  0  0  0  0
   -4.5650    1.7620   -0.6980 H   0  0  0  0  0
   -2.8150    3.4890    1.1100 H   0  0  0  0  0
   -0.6440    2.8430    1.0260 H   0  0  0  0  0
    0.2110    1.4240   -1.6170 H   0  0  0  0  0
    1.6660    2.1760    0.9850 H   0  0  0  0  0
    2.5120    0.7620   -1.6530 H   0  0  0  0  0
    4.8150    0.1010   -1.6850 H   0  0  0  0  0
    6.2840    0.8520    0.9240 H   0  0  0  0  0
    7.1280   -0.5610   -1.7130 H   0  0  0  0  0
    8.5870    0.1910    0.8910 H   0  0  0  0  0
   11.4170   -2.2640   -1.5300 H   0  0  0  0  0
   12.2730   -2.9020    0.7080 H   0  0  0  0  0
   13.6110   -2.6240   -0.4320 H   0  0  0  0  0
   12.5590   -0.6060    1.6020 H   0  0  0  0  0
   -9.7700    1.5170    1.2010 H   0  0  0  0  0
   -4.6220    2.6820    2.8480 H   0  0  0  0  0
   -3.4860    1.2450    1.9480 H   0  0  0  0  0
   -4.4780    4.7870   -0.1930 H   0  0  0  0  0
   -2.8310    5.0540   -0.8130 H   0  0  0  0  0
   -3.9450    3.9720   -1.6840 H   0  0  0  0  0
    3.8060    0.9040    2.0830 H   0  0  0  0  0
    5.0450    2.0240    1.4690 H   0  0  0  0  0
    3.3320    2.5100    1.4800 H   0  0  0  0  0
   13.3750   -0.9210   -2.2450 H   0  0  0  0  0
   13.6610    1.3750   -1.3510 H   0  0  0  0  0
   12.3230    1.0970   -0.2100 H   0  0  0  0  0
   14.5170    0.7370    0.8870 H   0  0  0  0  0
   14.9220   -0.5000   -0.3280 H   0  0  0  0  0
   12.0530    0.8400   -3.1720 H   0  0  0  0  0
   -8.8870   -4.1030    2.6030 H   0  0  0  0  0
  -10.3280   -4.1460    3.4660 H   0  0  0  0  0
   15.5640   -1.4230    3.5390 H   0  0  0  0  0
  1  2  1  0  0  0
  1 48  1  0  0  0
  1 49  1  0  0  0
  1 50  1  0  0  0
  2  3  1  0  0  0
  2 51  1  0  0  0
  2 52  1  0  0  0
  3  4  2  0  0  0
  3 53  1  0  0  0
  4  5  1  0  0  0
  4 54  1  0  0  0
  5  6  1  0  0  0
  5 29  1  0  0  0
  5 55  1  0  0  0
  6  7  1  0  0  0
  6 30  1  0  0  0
  6 56  1  0  0  0
  7  8  1  0  0  0
  7 31  1  0  0  0
  7 57  1  0  0  0
  8  9  1  0  0  0
  8 58  1  0  0  0
  8 59  1  0  0  0
  9 10  1  0  0  0
  9 45  2  0  0  0
 10 11  1  0  0  0
 10 32  1  0  0  0
 10 60  1  0  0  0
 11 12  1  0  0  0
 11 33  1  0  0  0
 11 61  1  0  0  0
 12 13  1  0  0  0
 12 34  1  0  0  0
 12 62  1  0  0  0
 13 14  2  0  0  0
 13 35  1  0  0  0
 14 15  1  0  0  0
 14 63  1  0  0  0
 15 16  2  0  0  0
 15 64  1  0  0  0
 16 17  1  0  0  0
 16 65  1  0  0  0
 17 18  2  0  0  0
 17 66  1  0  0  0
 18 19  1  0  0  0
 18 36  1  0  0  0
 19 20  2  0  0  0
 19 67  1  0  0  0
 20 21  1  0  0  0
 20 68  1  0  0  0
 21 22  2  0  0  0
 21 69  1  0  0  0
 22 23  1  0  0  0
 22 70  1  0  0  0
 23 24  1  0  0  0
 23 37  2  0  0  0
 24 25  1  0  0  0
 25 26  1  0  0  0
 25 38  1  0  0  0
 25 71  1  0  0  0
 26 27  1  0  0  0
 26 72  1  0  0  0
 26 73  1  0  0  0
 27 28  1  0  0  0
 27 40  1  0  0  0
 27 74  1  0  0  0
 28 46  2  0  0  0
 28 47  1  0  0  0
 29 42  1  0  0  0
 31 75  1  0  0  0
 32 76  1  0  0  0
 33 77  1  0  0  0
 34 78  1  0  0  0
 34 79  1  0  0  0
 34 80  1  0  0  0
 36 81  1  0  0  0
 36 82  1  0  0  0
 36 83  1  0  0  0
 38 39  1  0  0  0
 38 41  1  0  0  0
 38 84  1  0  0  0
 39 40  1  0  0  0
 39 85  1  0  0  0
 39 86  1  0  0  0
 40 87  1  0  0  0
 40 88  1  0  0  0
 41 89  1  0  0  0
 42 43  1  0  0  0
 42 44  2  0  0  0
 43 90  1  0  0  0
 43 91  1  0  0  0
 47 92  1  0  0  0
M  END
$$$$
