EPH
  CCTOOLS-0919241032

117116  0  0  1  0  0  0  0  0999 V2000
    4.3990   -1.0060   -1.5020 C   0  0  0  0  0
    3.6590   -1.3730   -2.7900 C   0  0  0  0  0
    3.8710   -0.5750    0.8190 C   0  0  0  0  0
    3.4460   -0.8910   -0.4130 O   0  0  0  0  0
    5.0470   -0.3870    1.0230 O   0  0  0  0  0
    2.8820   -0.4550    1.9500 C   0  0  0  0  0
    3.6220   -0.0890    3.2380 C   0  0  0  0  0
    2.6180    0.0320    4.3860 C   0  0  0  0  0
    3.3580    0.3980    5.6740 C   0  0  0  0  0
    2.3530    0.5200    6.8220 C   0  0  0  0  0
    3.0930    0.8860    8.1100 C   0  0  0  0  0
    2.1040    1.0060    9.2410 C   0  0  0  0  0
    2.2140    0.2320   10.2920 C   0  0  0  0  0
    1.2250    0.3520   11.4230 C   0  0  0  0  0
    0.5030   -0.9830   11.6120 C   0  0  0  0  0
   -0.4850   -0.8630   12.7430 C   0  0  0  0  0
   -1.7600   -1.0670   12.5220 C   0  0  0  0  0
   -2.7490   -0.9480   13.6530 C   0  0  0  0  0
   -3.7710    0.1420   13.3240 C   0  0  0  0  0
   -4.7600    0.2610   14.4540 C   0  0  0  0  0
   -4.8850    1.3960   15.0980 C   0  0  0  0  0
   -5.8740    1.5150   16.2290 C   0  0  0  0  0
    4.6630   -1.4940   -3.9380 C   0  0  0  0  0
    5.3380   -0.2470   -4.1150 O   0  0  0  0  0
    1.5610   -0.6520   -3.7590 C   0  0  0  0  0
    2.6890   -0.3380   -3.1030 O   0  0  0  0  0
    1.3520   -1.7950   -4.0890 O   0  0  0  0  0
    0.5550    0.4220   -4.0830 C   0  0  0  0  0
   -0.6290   -0.1970   -4.8270 C   0  0  0  0  0
   -1.6510    0.8930   -5.1570 C   0  0  0  0  0
   -2.8350    0.2740   -5.9010 C   0  0  0  0  0
   -3.8570    1.3640   -6.2300 C   0  0  0  0  0
   -5.0420    0.7450   -6.9740 C   0  0  0  0  0
   -6.0630    1.8360   -7.3040 C   0  0  0  0  0
   -7.2300    1.2260   -8.0370 C   0  0  0  0  0
   -8.4360    1.3060   -7.5310 C   0  0  0  0  0
   -9.6030    0.6960   -8.2640 C   0  0  0  0  0
  -10.2490   -0.3510   -7.3950 C   0  0  0  0  0
  -11.5060   -0.2280   -7.0460 C   0  0  0  0  0
  -12.1520   -1.2760   -6.1770 C   0  0  0  0  0
  -12.6450   -0.6310   -4.8810 C   0  0  0  0  0
  -13.3020   -1.6950   -3.9990 C   0  0  0  0  0
    6.3730   -0.4470   -5.3320 P   0  0  0  0  0
    7.4180   -1.6140   -4.9620 O   0  0  0  0  0
    5.6300   -0.8200   -6.5560 O   0  0  0  0  0
    7.1720    0.9270   -5.5870 O   0  0  0  0  0
    8.0700    0.6870   -6.6720 C   0  0  0  0  0
    8.8650    1.9600   -6.9680 C   0  0  0  0  0
    9.6310    2.3480   -5.7750 N   0  0  0  0  0
    5.1260   -1.7830   -1.2680 H   0  0  0  0  0
    4.9130   -0.0550   -1.6370 H   0  0  0  0  0
    3.1440   -2.3240   -2.6560 H   0  0  0  0  0
    2.1540    0.3200    1.7160 H   0  0  0  0  0
    2.3670   -1.4070    2.0850 H   0  0  0  0  0
    4.3500   -0.8660    3.4730 H   0  0  0  0  0
    4.1370    0.8610    3.1040 H   0  0  0  0  0
    1.8900    0.8080    4.1520 H   0  0  0  0  0
    2.1030   -0.9190    4.5210 H   0  0  0  0  0
    4.0850   -0.3780    5.9090 H   0  0  0  0  0
    3.8720    1.3490    5.5400 H   0  0  0  0  0
    1.6260    1.2960    6.5880 H   0  0  0  0  0
    1.8390   -0.4310    6.9570 H   0  0  0  0  0
    3.8210    0.1090    8.3450 H   0  0  0  0  0
    3.6080    1.8370    7.9760 H   0  0  0  0  0
    1.3040    1.7290    9.1850 H   0  0  0  0  0
    3.0140   -0.4910   10.3490 H   0  0  0  0  0
    1.7520    0.6130   12.3410 H   0  0  0  0  0
    0.4980    1.1280   11.1880 H   0  0  0  0  0
   -0.0230   -1.2440   10.6940 H   0  0  0  0  0
    1.2310   -1.7600   11.8470 H   0  0  0  0  0
   -0.1430   -0.6090   13.7350 H   0  0  0  0  0
   -2.1030   -1.3220   11.5300 H   0  0  0  0  0
   -3.2640   -1.8990   13.7880 H   0  0  0  0  0
   -2.2220   -0.6870   14.5700 H   0  0  0  0  0
   -3.2560    1.0930   13.1890 H   0  0  0  0  0
   -4.2980   -0.1180   12.4060 H   0  0  0  0  0
   -5.3660   -0.5870   14.7340 H   0  0  0  0  0
   -4.2790    2.2450   14.8180 H   0  0  0  0  0
   -5.8360    2.5240   16.6390 H   0  0  0  0  0
   -6.8780    1.3120   15.8560 H   0  0  0  0  0
   -5.6230    0.7960   17.0080 H   0  0  0  0  0
    5.3910   -2.2710   -3.7040 H   0  0  0  0  0
    4.1360   -1.7550   -4.8560 H   0  0  0  0  0
    1.0220    1.1800   -4.7110 H   0  0  0  0  0
    0.2030    0.8810   -3.1590 H   0  0  0  0  0
   -1.0970   -0.9550   -4.1990 H   0  0  0  0  0
   -0.2780   -0.6560   -5.7510 H   0  0  0  0  0
   -1.1830    1.6510   -5.7850 H   0  0  0  0  0
   -2.0020    1.3530   -4.2330 H   0  0  0  0  0
   -3.3030   -0.4830   -5.2730 H   0  0  0  0  0
   -2.4840   -0.1850   -6.8250 H   0  0  0  0  0
   -3.3890    2.1230   -6.8580 H   0  0  0  0  0
   -4.2080    1.8240   -5.3060 H   0  0  0  0  0
   -5.5090   -0.0120   -6.3460 H   0  0  0  0  0
   -4.6900    0.2860   -7.8980 H   0  0  0  0  0
   -5.5960    2.5940   -7.9320 H   0  0  0  0  0
   -6.4140    2.2950   -6.3800 H   0  0  0  0  0
   -7.0730    0.7230   -8.9790 H   0  0  0  0  0
   -8.5930    1.8090   -6.5880 H   0  0  0  0  0
   -9.2510    0.2370   -9.1880 H   0  0  0  0  0
  -10.3310    1.4730   -8.4980 H   0  0  0  0  0
   -9.6770   -1.2040   -7.0610 H   0  0  0  0  0
  -12.0780    0.6240   -7.3800 H   0  0  0  0  0
  -11.4250   -2.0530   -5.9430 H   0  0  0  0  0
  -12.9960   -1.7170   -6.7080 H   0  0  0  0  0
  -13.3730    0.1450   -5.1150 H   0  0  0  0  0
  -11.8010   -0.1900   -4.3500 H   0  0  0  0  0
  -13.6530   -1.2360   -3.0750 H   0  0  0  0  0
  -14.1460   -2.1360   -4.5290 H   0  0  0  0  0
  -12.5740   -2.4720   -3.7640 H   0  0  0  0  0
    7.8800   -1.3320   -4.1600 H   0  0  0  0  0
    8.7570   -0.1150   -6.4050 H   0  0  0  0  0
    7.5020    0.4000   -7.5570 H   0  0  0  0  0
    9.5500    1.7770   -7.7960 H   0  0  0  0  0
    8.1780    2.7630   -7.2350 H   0  0  0  0  0
   10.1360    3.1870   -6.0150 H   0  0  0  0  0
    8.9570    2.6060   -5.0700 H   0  0  0  0  0
  1  2  1  0  0  0
  1  4  1  0  0  0
  1 50  1  0  0  0
  1 51  1  0  0  0
  2 23  1  0  0  0
  2 26  1  0  0  0
  2 52  1  0  0  0
  3  4  1  0  0  0
  3  5  2  0  0  0
  3  6  1  0  0  0
  6  7  1  0  0  0
  6 53  1  0  0  0
  6 54  1  0  0  0
  7  8  1  0  0  0
  7 55  1  0  0  0
  7 56  1  0  0  0
  8  9  1  0  0  0
  8 57  1  0  0  0
  8 58  1  0  0  0
  9 10  1  0  0  0
  9 59  1  0  0  0
  9 60  1  0  0  0
 10 11  1  0  0  0
 10 61  1  0  0  0
 10 62  1  0  0  0
 11 12  1  0  0  0
 11 63  1  0  0  0
 11 64  1  0  0  0
 12 13  2  0  0  0
 12 65  1  0  0  0
 13 14  1  0  0  0
 13 66  1  0  0  0
 14 15  1  0  0  0
 14 67  1  0  0  0
 14 68  1  0  0  0
 15 16  1  0  0  0
 15 69  1  0  0  0
 15 70  1  0  0  0
 16 17  2  0  0  0
 16 71  1  0  0  0
 17 18  1  0  0  0
 17 72  1  0  0  0
 18 19  1  0  0  0
 18 73  1  0  0  0
 18 74  1  0  0  0
 19 20  1  0  0  0
 19 75  1  0  0  0
 19 76  1  0  0  0
 20 21  2  0  0  0
 20 77  1  0  0  0
 21 22  1  0  0  0
 21 78  1  0  0  0
 22 79  1  0  0  0
 22 80  1  0  0  0
 22 81  1  0  0  0
 23 24  1  0  0  0
 23 82  1  0  0  0
 23 83  1  0  0  0
 24 43  1  0  0  0
 25 26  1  0  0  0
 25 27  2  0  0  0
 25 28  1  0  0  0
 28 29  1  0  0  0
 28 84  1  0  0  0
 28 85  1  0  0  0
 29 30  1  0  0  0
 29 86  1  0  0  0
 29 87  1  0  0  0
 30 31  1  0  0  0
 30 88  1  0  0  0
 30 89  1  0  0  0
 31 32  1  0  0  0
 31 90  1  0  0  0
 31 91  1  0  0  0
 32 33  1  0  0  0
 32 92  1  0  0  0
 32 93  1  0  0  0
 33 34  1  0  0  0
 33 94  1  0  0  0
 33 95  1  0  0  0
 34 35  1  0  0  0
 34 96  1  0  0  0
 34 97  1  0  0  0
 35 36  2  0  0  0
 35 98  1  0  0  0
 36 37  1  0  0  0
 36 99  1  0  0  0
 37 38  1  0  0  0
 37100  1  0  0  0
 37101  1  0  0  0
 38 39  2  0  0  0
 38102  1  0  0  0
 39 40  1  0  0  0
 39103  1  0  0  0
 40 41  1  0  0  0
 40104  1  0  0  0
 40105  1  0  0  0
 41 42  1  0  0  0
 41106  1  0  0  0
 41107  1  0  0  0
 42108  1  0  0  0
 42109  1  0  0  0
 42110  1  0  0  0
 43 44  1  0  0  0
 43 45  2  0  0  0
 43 46  1  0  0  0
 44111  1  0  0  0
 46 47  1  0  0  0
 47 48  1  0  0  0
 47112  1  0  0  0
 47113  1  0  0  0
 48 49  1  0  0  0
 48114  1  0  0  0
 48115  1  0  0  0
 49116  1  0  0  0
 49117  1  0  0  0
M  END
$$$$
