EPU
  CCTOOLS-0919241032

 73 75  0  0  1  0  0  0  0  0999 V2000
   -0.9700    0.8030    6.8480 N   0  0  0  0  0
   -1.4850   -0.4080    6.5740 C   0  0  0  0  0
   -2.7090   -0.7550    7.0130 N   0  0  0  0  0
   -3.4460    0.1160    7.7310 C   0  0  0  0  0
   -2.9180    1.3970    8.0220 C   0  0  0  0  0
   -1.6850    1.7170    7.5730 C   0  0  0  0  0
   -0.8320   -1.2050    5.9280 O   0  0  0  0  0
   -4.5560   -0.1940    8.1240 O   0  0  0  0  0
    0.3660    1.1500    6.3600 C   0  0  0  0  0
    1.4130    0.1140    6.8430 C   0  0  0  0  0
    1.9050    0.4530    8.1410 O   0  0  0  0  0
    2.5290    0.2560    5.7750 C   0  0  0  0  0
    1.8120    0.8950    4.5690 C   0  0  0  0  0
    0.4270    1.0440    4.9220 O   0  0  0  0  0
    3.5730    1.1070    6.2530 O   0  0  0  0  0
    1.9430   -0.0120    3.3450 C   0  0  0  0  0
    1.2700    0.5840    2.2350 O   0  0  0  0  0
    1.4470   -0.4190    0.9890 P   0  0  0  0  0
    2.8880   -0.5940    0.6980 O   0  0  0  0  0
    0.7960   -1.8460    1.3520 O   0  0  0  0  0
    0.7090    0.1940   -0.3030 O   0  0  0  0  0
    0.9260   -0.8550   -1.5040 P   0  0  0  0  0
    0.3350   -2.1600   -1.1320 O   0  0  0  0  0
    2.5010   -1.0380   -1.7790 O   0  0  0  0  0
    0.4360   -1.2720   -3.8600 C   0  0  0  0  0
    0.4840   -0.5730   -5.2210 C   0  0  0  0  0
   -0.8400    0.1600   -5.4550 C   0  0  0  0  0
   -1.9910   -0.8350   -5.2710 C   0  0  0  0  0
   -1.8520   -1.5140   -3.9070 C   0  0  0  0  0
   -3.0160   -2.4860   -3.7030 C   0  0  0  0  0
    2.8120    0.0040   -5.6500 C   0  0  0  0  0
    3.9480    0.9950   -5.6670 C   0  0  0  0  0
    1.5880    0.3890   -5.2380 N   0  0  0  0  0
    0.2090   -0.3020   -2.8360 O   0  0  0  0  0
   -0.8730    0.6910   -6.7810 O   0  0  0  0  0
   -3.2390   -0.1430   -5.3360 O   0  0  0  0  0
   -0.6200   -2.2300   -3.8460 O   0  0  0  0  0
   -2.8930   -3.1170   -2.4270 O   0  0  0  0  0
    3.0000   -1.1390   -6.0060 O   0  0  0  0  0
   -1.1900    2.9920   -5.9870 C   0  0  0  0  0
   -0.1230    2.9690   -5.4060 O   0  0  0  0  0
   -1.9570    4.0990   -5.9440 O   0  0  0  0  0
   -1.6460    1.8090   -6.7380 C   0  0  0  0  0
   -2.8180    1.8340   -7.3750 C   0  0  0  0  0
   -3.0650   -1.6340    6.8100 H   0  0  0  0  0
   -3.4930    2.1090    8.5950 H   0  0  0  0  0
   -1.2660    2.6890    7.7850 H   0  0  0  0  0
    0.6430    2.1540    6.6830 H   0  0  0  0  0
    0.9950   -0.8920    6.8390 H   0  0  0  0  0
    2.5490   -0.2270    8.3830 H   0  0  0  0  0
    2.9270   -0.7210    5.5070 H   0  0  0  0  0
    2.2470    1.8710    4.3550 H   0  0  0  0  0
    3.9410    0.6820    7.0400 H   0  0  0  0  0
    1.4960   -0.9820    3.5630 H   0  0  0  0  0
    2.9970   -0.1450    3.1020 H   0  0  0  0  0
   -0.1390   -1.6870    1.5350 H   0  0  0  0  0
    2.8460   -0.1670   -2.0180 H   0  0  0  0  0
    1.3850   -1.7770   -3.6780 H   0  0  0  0  0
    0.6350   -1.3140   -6.0060 H   0  0  0  0  0
   -0.9390    0.9710   -4.7340 H   0  0  0  0  0
   -1.9500   -1.5870   -6.0590 H   0  0  0  0  0
   -1.8710   -0.7580   -3.1220 H   0  0  0  0  0
   -3.9580   -1.9400   -3.7490 H   0  0  0  0  0
   -2.9970   -3.2450   -4.4860 H   0  0  0  0  0
    4.8520    0.5040   -6.0270 H   0  0  0  0  0
    3.6960    1.8240   -6.3290 H   0  0  0  0  0
    4.1160    1.3730   -4.6590 H   0  0  0  0  0
    1.4380    1.3040   -4.9530 H   0  0  0  0  0
   -3.9330   -0.8050   -5.2110 H   0  0  0  0  0
   -3.6440   -3.7190   -2.3390 H   0  0  0  0  0
   -1.6580    4.8760   -5.4510 H   0  0  0  0  0
   -3.3950    2.7470   -7.4080 H   0  0  0  0  0
   -3.1890    0.9430   -7.8590 H   0  0  0  0  0
  1  2  1  0  0  0
  1  6  1  0  0  0
  1  9  1  0  0  0
  2  3  1  0  0  0
  2  7  2  0  0  0
  3  4  1  0  0  0
  3 45  1  0  0  0
  4  5  1  0  0  0
  4  8  2  0  0  0
  5  6  2  0  0  0
  5 46  1  0  0  0
  6 47  1  0  0  0
  9 10  1  0  0  0
  9 14  1  0  0  0
  9 48  1  0  0  0
 10 11  1  0  0  0
 10 12  1  0  0  0
 10 49  1  0  0  0
 11 50  1  0  0  0
 12 13  1  0  0  0
 12 15  1  0  0  0
 12 51  1  0  0  0
 13 14  1  0  0  0
 13 16  1  0  0  0
 13 52  1  0  0  0
 15 53  1  0  0  0
 16 17  1  0  0  0
 16 54  1  0  0  0
 16 55  1  0  0  0
 17 18  1  0  0  0
 18 19  2  0  0  0
 18 20  1  0  0  0
 18 21  1  0  0  0
 20 56  1  0  0  0
 21 22  1  0  0  0
 22 23  2  0  0  0
 22 24  1  0  0  0
 22 34  1  0  0  0
 24 57  1  0  0  0
 25 26  1  0  0  0
 25 34  1  0  0  0
 25 37  1  0  0  0
 25 58  1  0  0  0
 26 27  1  0  0  0
 26 33  1  0  0  0
 26 59  1  0  0  0
 27 28  1  0  0  0
 27 35  1  0  0  0
 27 60  1  0  0  0
 28 29  1  0  0  0
 28 36  1  0  0  0
 28 61  1  0  0  0
 29 30  1  0  0  0
 29 37  1  0  0  0
 29 62  1  0  0  0
 30 38  1  0  0  0
 30 63  1  0  0  0
 30 64  1  0  0  0
 31 32  1  0  0  0
 31 33  1  0  0  0
 31 39  2  0  0  0
 32 65  1  0  0  0
 32 66  1  0  0  0
 32 67  1  0  0  0
 33 68  1  0  0  0
 35 43  1  0  0  0
 36 69  1  0  0  0
 38 70  1  0  0  0
 40 41  2  0  0  0
 40 42  1  0  0  0
 40 43  1  0  0  0
 42 71  1  0  0  0
 43 44  2  0  0  0
 44 72  1  0  0  0
 44 73  1  0  0  0
M  END
$$$$
