ERE
  CCTOOLS-1004241119

 26 26  0  0  1  0  0  0  0  0999 V2000
    0.7120   -1.6690   -0.4380 C   0  0  0  0  0
   -0.6860   -1.2880   -0.9350 C   0  0  0  0  0
   -1.1810   -0.0670   -0.1540 C   0  0  0  0  0
   -0.1740    1.0750   -0.3200 C   0  0  0  0  0
    1.2040    0.6030    0.1520 C   0  0  0  0  0
    1.5910   -0.5530   -0.5930 O   0  0  0  0  0
   -1.3090   -0.4250    1.3280 C   0  0  0  0  0
   -2.4890    0.3520   -0.6750 N   0  0  0  0  0
   -0.5890    2.1960    0.4630 O   0  0  0  0  0
    2.2280    1.7180   -0.0660 C   0  0  0  0  0
    0.6440   -2.0350    0.9410 O   0  0  0  0  0
    1.0870   -2.5110   -1.0200 H   0  0  0  0  0
   -0.6420   -1.0480   -1.9970 H   0  0  0  0  0
   -1.3680   -2.1230   -0.7770 H   0  0  0  0  0
    1.4950   -2.2880    1.3230 H   0  0  0  0  0
   -0.1200    1.3630   -1.3700 H   0  0  0  0  0
   -0.3160   -0.5620    1.7560 H   0  0  0  0  0
   -1.8230    0.3810    1.8540 H   0  0  0  0  0
   -1.8800   -1.3480    1.4310 H   0  0  0  0  0
   -3.1690   -0.3880   -0.5820 H   0  0  0  0  0
   -2.8070    1.1940   -0.2190 H   0  0  0  0  0
    1.1580    0.3540    1.2120 H   0  0  0  0  0
    0.0040    2.9580    0.4050 H   0  0  0  0  0
    1.9320    2.6000    0.5020 H   0  0  0  0  0
    3.2090    1.3820    0.2700 H   0  0  0  0  0
    2.2730    1.9670   -1.1270 H   0  0  0  0  0
  1  2  1  0  0  0
  1  6  1  0  0  0
  1 11  1  0  0  0
  1 12  1  0  0  0
  2  3  1  0  0  0
  2 13  1  0  0  0
  2 14  1  0  0  0
  3  4  1  0  0  0
  3  7  1  0  0  0
  3  8  1  0  0  0
  4  5  1  0  0  0
  4  9  1  0  0  0
  4 16  1  0  0  0
  5  6  1  0  0  0
  5 10  1  0  0  0
  5 22  1  0  0  0
  7 17  1  0  0  0
  7 18  1  0  0  0
  7 19  1  0  0  0
  8 20  1  0  0  0
  8 21  1  0  0  0
  9 23  1  0  0  0
 10 24  1  0  0  0
 10 25  1  0  0  0
 10 26  1  0  0  0
 11 15  1  0  0  0
M  END
$$$$
