ESA
  CCTOOLS-0919241032

 12 11  0  0  0  0  0  0  0  0999 V2000
    0.0000   -0.1480    2.3890 C   0  0  0  0  0
    0.0000    0.8320    1.2150 C   0  0  0  0  0
    0.0000   -0.0910   -0.3450 S   0  0  0  0  0
    1.2430   -0.7420   -0.5680 O   0  0  0  0  0
    0.0000    1.0070   -1.3980 O   0  0  0  0  0
   -1.2430   -0.7420   -0.5680 O   0  0  0  0  0
    0.0000    0.4060    3.3270 H   0  0  0  0  0
   -0.8900   -0.7760    2.3380 H   0  0  0  0  0
    0.8900   -0.7760    2.3380 H   0  0  0  0  0
   -0.8900    1.4590    1.2660 H   0  0  0  0  0
    0.8900    1.4590    1.2660 H   0  0  0  0  0
    0.0000    0.5680   -2.2600 H   0  0  0  0  0
  1  2  1  0  0  0
  1  7  1  0  0  0
  1  8  1  0  0  0
  1  9  1  0  0  0
  2  3  1  0  0  0
  2 10  1  0  0  0
  2 11  1  0  0  0
  3  4  2  0  0  0
  3  5  1  0  0  0
  3  6  2  0  0  0
  5 12  1  0  0  0
M  END
$$$$
