ETC
  CCTOOLS-0919241032

 48 51  0  0  1  0  0  0  0  0999 V2000
    1.2860    3.6530   -1.4100 C   0  0  0  0  0
    0.7040    2.2400   -1.3450 C   0  0  0  0  0
    0.3430    1.9030    0.1040 C   0  0  0  0  0
    1.6170    1.8710    0.9450 C   0  0  0  0  0
   -0.3530    0.5690    0.1440 C   0  0  0  0  0
    0.3520   -0.5720    0.1570 C   0  0  0  0  0
    1.8240   -0.5150    0.1890 C   0  0  0  0  0
    2.5910   -1.6340   -0.1370 C   0  0  0  0  0
    3.9670   -1.5560   -0.0980 C   0  0  0  0  0
    4.5880   -0.3680    0.2660 C   0  0  0  0  0
    5.9440   -0.2950    0.2960 O   0  0  0  0  0
    3.8270    0.7460    0.6010 C   0  0  0  0  0
    2.4520    0.6750    0.5690 C   0  0  0  0  0
   -1.8250    0.5150    0.1960 C   0  0  0  0  0
   -2.4540   -0.6750    0.5750 C   0  0  0  0  0
   -1.6210   -1.8700    0.9560 C   0  0  0  0  0
   -0.3450   -1.9060    0.1160 C   0  0  0  0  0
   -0.7040   -2.2430   -1.3320 C   0  0  0  0  0
   -1.2750   -3.6600   -1.4000 C   0  0  0  0  0
   -3.8290   -0.7410    0.6140 C   0  0  0  0  0
   -4.5880    0.3790    0.2990 C   0  0  0  0  0
   -5.9450    0.3080    0.3340 O   0  0  0  0  0
   -3.9660    1.5700   -0.0530 C   0  0  0  0  0
   -2.5900    1.6430   -0.1010 C   0  0  0  0  0
    2.1820    3.7060   -0.7910 H   0  0  0  0  0
    1.5430    3.8930   -2.4420 H   0  0  0  0  0
    0.5480    4.3670   -1.0440 H   0  0  0  0  0
   -0.1910    2.1870   -1.9640 H   0  0  0  0  0
    1.4420    1.5260   -1.7110 H   0  0  0  0  0
   -0.3260    2.6700    0.4940 H   0  0  0  0  0
    2.1900    2.7810    0.7700 H   0  0  0  0  0
    1.3520    1.8090    2.0000 H   0  0  0  0  0
    2.1080   -2.5570   -0.4200 H   0  0  0  0  0
    4.5630   -2.4210   -0.3510 H   0  0  0  0  0
    6.2180   -0.5490    1.1880 H   0  0  0  0  0
    4.3140    1.6670    0.8840 H   0  0  0  0  0
   -1.3580   -1.8060    2.0110 H   0  0  0  0  0
   -2.1940   -2.7810    0.7810 H   0  0  0  0  0
    0.3220   -2.6730    0.5090 H   0  0  0  0  0
   -1.4460   -1.5330   -1.6970 H   0  0  0  0  0
    0.1910   -2.1820   -1.9520 H   0  0  0  0  0
   -2.1700   -3.7210   -0.7810 H   0  0  0  0  0
   -1.5310   -3.9000   -2.4320 H   0  0  0  0  0
   -0.5320   -4.3700   -1.0350 H   0  0  0  0  0
   -4.3170   -1.6640    0.8900 H   0  0  0  0  0
   -6.2330    0.0370   -0.5480 H   0  0  0  0  0
   -4.5610    2.4400   -0.2890 H   0  0  0  0  0
   -2.1060    2.5710   -0.3690 H   0  0  0  0  0
  1  2  1  0  0  0
  1 25  1  0  0  0
  1 26  1  0  0  0
  1 27  1  0  0  0
  2  3  1  0  0  0
  2 28  1  0  0  0
  2 29  1  0  0  0
  3  4  1  0  0  0
  3  5  1  0  0  0
  3 30  1  0  0  0
  4 13  1  0  0  0
  4 31  1  0  0  0
  4 32  1  0  0  0
  5  6  2  0  0  0
  5 14  1  0  0  0
  6  7  1  0  0  0
  6 17  1  0  0  0
  7  8  2  0  0  0
  7 13  1  0  0  0
  8  9  1  0  0  0
  8 33  1  0  0  0
  9 10  2  0  0  0
  9 34  1  0  0  0
 10 11  1  0  0  0
 10 12  1  0  0  0
 11 35  1  0  0  0
 12 13  2  0  0  0
 12 36  1  0  0  0
 14 15  2  0  0  0
 14 24  1  0  0  0
 15 16  1  0  0  0
 15 20  1  0  0  0
 16 17  1  0  0  0
 16 37  1  0  0  0
 16 38  1  0  0  0
 17 18  1  0  0  0
 17 39  1  0  0  0
 18 19  1  0  0  0
 18 40  1  0  0  0
 18 41  1  0  0  0
 19 42  1  0  0  0
 19 43  1  0  0  0
 19 44  1  0  0  0
 20 21  2  0  0  0
 20 45  1  0  0  0
 21 22  1  0  0  0
 21 23  1  0  0  0
 22 46  1  0  0  0
 23 24  2  0  0  0
 23 47  1  0  0  0
 24 48  1  0  0  0
M  END
$$$$
