ETM
  CCTOOLS-1004241119

 21 20  0  0  0  0  0  0  0  0999 V2000
    2.6760   -0.1850    0.0000 S   0  0  0  0  0
    1.0040    0.5180    0.0000 C   0  0  0  0  0
   -0.0260   -0.6140    0.0000 C   0  0  0  0  0
   -1.3800   -0.0450    0.0000 N   0  3  0  0  0
   -1.5630    0.7840   -1.1990 C   0  0  0  0  0
   -1.5630    0.7830    1.2000 C   0  0  0  0  0
   -2.3680   -1.1320   -0.0010 C   0  0  0  0  0
    3.4050    0.9450    0.0010 H   0  0  0  0  0
    0.8680    1.1330   -0.8890 H   0  0  0  0  0
    0.8680    1.1320    0.8910 H   0  0  0  0  0
    0.1100   -1.2290    0.8890 H   0  0  0  0  0
    0.1100   -1.2280   -0.8910 H   0  0  0  0  0
   -0.8290    1.5910   -1.1980 H   0  0  0  0  0
   -1.4270    0.1700   -2.0890 H   0  0  0  0  0
   -2.5680    1.2070   -1.1990 H   0  0  0  0  0
   -2.5680    1.2050    1.2000 H   0  0  0  0  0
   -1.4270    0.1680    2.0900 H   0  0  0  0  0
   -0.8290    1.5890    1.2000 H   0  0  0  0  0
   -2.2320   -1.7460   -0.8910 H   0  0  0  0  0
   -2.2320   -1.7470    0.8890 H   0  0  0  0  0
   -3.3730   -0.7090    0.0000 H   0  0  0  0  0
  1  2  1  0  0  0
  1  8  1  0  0  0
  2  3  1  0  0  0
  2  9  1  0  0  0
  2 10  1  0  0  0
  3  4  1  0  0  0
  3 11  1  0  0  0
  3 12  1  0  0  0
  4  5  1  0  0  0
  4  6  1  0  0  0
  4  7  1  0  0  0
  5 13  1  0  0  0
  5 14  1  0  0  0
  5 15  1  0  0  0
  6 16  1  0  0  0
  6 17  1  0  0  0
  6 18  1  0  0  0
  7 19  1  0  0  0
  7 20  1  0  0  0
  7 21  1  0  0  0
M  CHG  1   4   1
M  END
$$$$
