F19
  CCTOOLS-0919241033

 35 36  0  0  0  0  0  0  0  0999 V2000
   -3.2380    0.0550   -1.8770 C   0  0  0  0  0
   -2.2430   -0.8200   -1.5690 C   0  0  0  0  0
   -1.8480   -1.0210   -0.2470 C   0  0  0  0  0
   -2.4500   -0.3520    0.7730 C   0  0  0  0  0
   -3.4780    0.5640    0.4930 C   0  0  0  0  0
   -3.8800    0.7680   -0.8510 C   0  0  0  0  0
   -4.9120    1.6800   -1.1300 C   0  0  0  0  0
   -5.5110    2.3530   -0.1090 C   0  0  0  0  0
   -5.1160    2.1520    1.2120 C   0  0  0  0  0
   -4.1200    1.2770    1.5200 C   0  0  0  0  0
   -0.5540   -2.1640    0.1080 S   0  0  0  0  0
   -0.7380   -2.5460    1.4640 O   0  0  0  0  0
   -0.5110   -3.0540   -0.9990 O   0  0  0  0  0
    2.6220    0.0800    1.0410 C   0  0  0  0  0
    2.9670    0.6510   -0.2220 O   0  0  0  0  0
    1.1330   -0.2720    1.0520 C   0  0  0  0  0
    0.8730   -1.3240    0.0660 N   0  0  0  0  0
    4.9710    1.7650   -1.5100 O   0  0  0  0  0
    5.3830   -0.3690   -0.0310 O   0  0  0  0  0
    4.5390    0.9950   -0.1630 P   0  0  0  0  0
    4.8110    1.8590    1.0070 O   0  0  0  0  0
   -3.5330    0.2010   -2.9060 H   0  0  0  0  0
   -1.7510   -1.3670   -2.3600 H   0  0  0  0  0
   -2.1360   -0.5220    1.7930 H   0  0  0  0  0
   -5.2280    1.8460   -2.1490 H   0  0  0  0  0
   -6.3040    3.0530   -0.3270 H   0  0  0  0  0
   -5.6070    2.6990    2.0030 H   0  0  0  0  0
   -3.8240    1.1320    2.5490 H   0  0  0  0  0
    3.2100   -0.8240    1.2040 H   0  0  0  0  0
    2.8310    0.7970    1.8340 H   0  0  0  0  0
    0.8500   -0.6260    2.0430 H   0  0  0  0  0
    0.5490    0.6130    0.8010 H   0  0  0  0  0
    1.5370   -1.5300   -0.6110 H   0  0  0  0  0
    5.1770   -0.9020   -0.8120 H   0  0  0  0  0
    0.0000    0.0000    0.0000 H   0  0  0  0  0
  1  2  2  0  0  0
  1  6  1  0  0  0
  1 22  1  0  0  0
  2  3  1  0  0  0
  2 23  1  0  0  0
  3  4  2  0  0  0
  3 11  1  0  0  0
  4  5  1  0  0  0
  4 24  1  0  0  0
  5  6  2  0  0  0
  5 10  1  0  0  0
  6  7  1  0  0  0
  7  8  2  0  0  0
  7 25  1  0  0  0
  8  9  1  0  0  0
  8 26  1  0  0  0
  9 10  2  0  0  0
  9 27  1  0  0  0
 10 28  1  0  0  0
 11 12  2  0  0  0
 11 13  2  0  0  0
 11 17  1  0  0  0
 14 15  1  0  0  0
 14 16  1  0  0  0
 14 29  1  0  0  0
 14 30  1  0  0  0
 15 20  1  0  0  0
 16 17  1  0  0  0
 16 31  1  0  0  0
 16 32  1  0  0  0
 17 33  1  0  0  0
 18 20  2  0  0  0
 19 20  1  0  0  0
 19 34  1  0  0  0
 20 21  1  0  0  0
 21 35  1  0  0  0
M  END
$$$$
