F6F
  CCTOOLS-0919241034

 32 32  0  0  0  0  0  0  0  0999 V2000
   -3.6370   -0.5850    0.1520 C   0  0  0  0  0
   -2.5440    0.2350   -0.1020 C   0  0  0  0  0
   -1.2760   -0.3010   -0.1500 C   0  0  0  0  0
   -1.0910   -1.6720    0.0460 C   0  0  0  0  0
   -2.1930   -2.4920    0.3010 C   0  0  0  0  0
   -3.4570   -1.9480    0.3530 C   0  0  0  0  0
   -4.8850   -0.0530    0.2030 O   0  0  0  0  0
   -4.7460    1.3490   -0.0390 C   0  0  0  0  0
   -4.1720    1.5500   -1.2990 F   0  0  0  0  0
   -6.0060    1.9560    0.0020 F   0  0  0  0  0
   -3.9240    1.9130    0.9420 F   0  0  0  0  0
    0.2660   -2.2510   -0.0100 C   0  0  0  0  0
    1.3270   -1.4580   -0.2560 N   0  0  0  0  0
    0.4250   -3.4430    0.1650 O   0  0  0  0  0
    2.6740   -2.0320   -0.3120 C   0  0  0  0  0
    3.6890   -0.9260   -0.6040 C   0  0  0  0  0
    3.7160   -0.0040    0.4880 O   0  0  0  0  0
    4.7990    1.1270    0.1150 P   0  0  0  0  0
    4.9780    2.1300    1.3620 O   0  0  0  0  0
    6.0970    0.4850   -0.1920 O   0  0  0  0  0
    4.2920    1.9530   -1.1700 O   0  0  0  0  0
   -2.6880    1.2940   -0.2570 H   0  0  0  0  0
   -0.4270    0.3370   -0.3460 H   0  0  0  0  0
   -2.0530   -3.5520    0.4570 H   0  0  0  0  0
   -4.3090   -2.5820    0.5490 H   0  0  0  0  0
    1.2000   -0.5060   -0.3960 H   0  0  0  0  0
    2.7160   -2.7820   -1.1020 H   0  0  0  0  0
    2.9100   -2.4990    0.6440 H   0  0  0  0  0
    3.4020   -0.4010   -1.5150 H   0  0  0  0  0
    4.6780   -1.3650   -0.7340 H   0  0  0  0  0
    5.6340    2.7900    1.0980 H   0  0  0  0  0
    3.4460    2.3550   -0.9280 H   0  0  0  0  0
  1  2  1  0  0  0
  1  6  2  0  0  0
  1  7  1  0  0  0
  2  3  2  0  0  0
  2 22  1  0  0  0
  3  4  1  0  0  0
  3 23  1  0  0  0
  4  5  2  0  0  0
  4 12  1  0  0  0
  5  6  1  0  0  0
  5 24  1  0  0  0
  6 25  1  0  0  0
  7  8  1  0  0  0
  8  9  1  0  0  0
  8 10  1  0  0  0
  8 11  1  0  0  0
 12 13  1  0  0  0
 12 14  2  0  0  0
 13 15  1  0  0  0
 13 26  1  0  0  0
 15 16  1  0  0  0
 15 27  1  0  0  0
 15 28  1  0  0  0
 16 17  1  0  0  0
 16 29  1  0  0  0
 16 30  1  0  0  0
 17 18  1  0  0  0
 18 19  1  0  0  0
 18 20  2  0  0  0
 18 21  1  0  0  0
 19 31  1  0  0  0
 21 32  1  0  0  0
M  END
$$$$
