F9F
  CCTOOLS-0919241034

 33 33  0  0  0  0  0  0  0  0999 V2000
   -3.3660    0.1550   -0.8220 C   0  0  0  0  0
   -2.9500   -0.0010    0.4920 C   0  0  0  0  0
   -1.8490   -0.7860    0.7780 C   0  0  0  0  0
   -1.1570   -1.4070   -0.2450 C   0  0  0  0  0
   -1.5700   -1.2530   -1.5550 C   0  0  0  0  0
   -2.6730   -0.4740   -1.8460 C   0  0  0  0  0
   -4.4520    0.9210   -1.1050 O   0  0  0  0  0
   -4.9390    1.4240    0.1400 C   0  0  0  0  0
   -3.9420    2.1850    0.7590 F   0  0  0  0  0
   -6.0630    2.2250   -0.0880 F   0  0  0  0  0
   -5.2910    0.3530    0.9700 F   0  0  0  0  0
    0.2510   -2.4010    0.1230 S   0  0  0  0  0
    1.5790   -1.4130    0.0800 N   0  0  0  0  0
    1.7210   -0.3320    1.0590 C   0  0  0  0  0
    3.1630    0.1780    1.0510 C   0  0  0  0  0
    3.4500    0.7750   -0.2150 O   0  0  0  0  0
    4.9750    1.2870   -0.1530 P   0  0  0  0  0
    5.3270    2.0900   -1.5040 O   0  0  0  0  0
    5.1480    2.1830    1.0120 O   0  0  0  0  0
    5.9600    0.0220   -0.0090 O   0  0  0  0  0
    0.3940   -3.2890   -0.9770 O   0  0  0  0  0
    0.1040   -2.7910    1.4810 O   0  0  0  0  0
   -3.4880    0.4870    1.2910 H   0  0  0  0  0
   -1.5250   -0.9080    1.8010 H   0  0  0  0  0
   -1.0300   -1.7430   -2.3520 H   0  0  0  0  0
   -2.9950   -0.3540   -2.8700 H   0  0  0  0  0
    2.2640   -1.5500   -0.5930 H   0  0  0  0  0
    1.4730   -0.7070    2.0520 H   0  0  0  0  0
    1.0450    0.4830    0.8000 H   0  0  0  0  0
    3.8440   -0.6550    1.2220 H   0  0  0  0  0
    3.2900    0.9200    1.8400 H   0  0  0  0  0
    6.2470    2.3780   -1.4260 H   0  0  0  0  0
    5.8160   -0.5350   -0.7860 H   0  0  0  0  0
  1  2  1  0  0  0
  1  6  2  0  0  0
  1  7  1  0  0  0
  2  3  2  0  0  0
  2 23  1  0  0  0
  3  4  1  0  0  0
  3 24  1  0  0  0
  4  5  2  0  0  0
  4 12  1  0  0  0
  5  6  1  0  0  0
  5 25  1  0  0  0
  6 26  1  0  0  0
  7  8  1  0  0  0
  8  9  1  0  0  0
  8 10  1  0  0  0
  8 11  1  0  0  0
 12 13  1  0  0  0
 12 21  2  0  0  0
 12 22  2  0  0  0
 13 14  1  0  0  0
 13 27  1  0  0  0
 14 15  1  0  0  0
 14 28  1  0  0  0
 14 29  1  0  0  0
 15 16  1  0  0  0
 15 30  1  0  0  0
 15 31  1  0  0  0
 16 17  1  0  0  0
 17 18  1  0  0  0
 17 19  2  0  0  0
 17 20  1  0  0  0
 18 32  1  0  0  0
 20 33  1  0  0  0
M  END
$$$$
