FA7
  CCTOOLS-0919241034

 25 24  0  0  0  0  0  0  0  0999 V2000
   -2.9810   -0.3220   -0.1200 C   0  0  0  0  0
   -2.1060   -1.1670   -0.1160 O   0  0  0  0  0
   -2.6380    1.0540   -0.1270 C   0  0  0  0  0
   -1.3450    1.4290    0.0070 C   0  0  0  0  0
   -0.3290    0.4380    0.3590 C   0  0  0  0  0
    0.9610    0.7820    0.3770 C   0  0  0  0  0
    2.0080   -0.2390    0.7400 C   0  0  0  0  0
    3.0510   -0.3190   -0.3770 C   0  0  0  0  0
    3.7990    1.0130   -0.4720 C   0  0  0  0  0
    4.0440   -1.4410   -0.0680 C   0  0  0  0  0
   -4.2790   -0.6940   -0.1220 O   0  0  0  0  0
   -3.4090    1.8020   -0.2390 H   0  0  0  0  0
   -1.0640    2.4600   -0.1460 H   0  0  0  0  0
   -0.6210   -0.5730    0.6040 H   0  0  0  0  0
    1.2530    1.7920    0.1320 H   0  0  0  0  0
    2.4940    0.0540    1.6710 H   0  0  0  0  0
    1.5370   -1.2140    0.8670 H   0  0  0  0  0
    2.5530   -0.5240   -1.3250 H   0  0  0  0  0
    3.0910    1.8120   -0.6910 H   0  0  0  0  0
    4.2960    1.2180    0.4760 H   0  0  0  0  0
    4.5420    0.9560   -1.2670 H   0  0  0  0  0
    3.5110   -2.3890   -0.0010 H   0  0  0  0  0
    4.7870   -1.4970   -0.8640 H   0  0  0  0  0
    4.5410   -1.2350    0.8790 H   0  0  0  0  0
   -4.4130   -1.6510   -0.1210 H   0  0  0  0  0
  1  2  2  0  0  0
  1  3  1  0  0  0
  1 11  1  0  0  0
  3  4  2  0  0  0
  3 12  1  0  0  0
  4  5  1  0  0  0
  4 13  1  0  0  0
  5  6  2  0  0  0
  5 14  1  0  0  0
  6  7  1  0  0  0
  6 15  1  0  0  0
  7  8  1  0  0  0
  7 16  1  0  0  0
  7 17  1  0  0  0
  8  9  1  0  0  0
  8 10  1  0  0  0
  8 18  1  0  0  0
  9 19  1  0  0  0
  9 20  1  0  0  0
  9 21  1  0  0  0
 10 22  1  0  0  0
 10 23  1  0  0  0
 10 24  1  0  0  0
 11 25  1  0  0  0
M  END
$$$$
