FAE
  CCTOOLS-0919241034

 87 92  0  0  1  0  0  0  0  0999 V2000
   -3.6070   -3.1020   -1.0900 P   0  0  0  0  0
   -3.8380   -4.5590   -0.9800 O   0  0  0  0  0
   -3.8710   -2.6290   -2.6060 O   0  0  0  0  0
   -4.6110   -2.3230   -0.1020 O   0  0  0  0  0
   -6.0290   -2.4950   -0.1400 C   0  0  0  0  0
   -6.6790   -1.6110    0.9270 C   0  0  0  0  0
   -6.4890   -0.2260    0.5960 O   0  0  0  0  0
   -8.1980   -1.8690    0.9680 C   0  0  0  0  0
   -8.5910   -2.3380    2.2590 O   0  0  0  0  0
   -8.8250   -0.4840    0.6790 C   0  0  0  0  0
   -9.9610   -0.2550    1.5160 O   0  0  0  0  0
   -7.6670    0.4800    1.0430 C   0  0  0  0  0
   -7.8100    1.7510    0.3290 N   0  0  0  0  0
   -7.2850    2.0530   -0.8930 C   0  0  0  0  0
   -7.6080    3.2690   -1.2270 N   0  3  0  0  0
   -8.3570    3.8220   -0.2440 C   0  0  0  0  0
   -8.9720    5.0720   -0.0540 C   0  0  0  0  0
   -8.8700    6.0640   -1.0140 N   0  0  0  0  0
   -9.6530    5.2790    1.0680 N   0  0  0  0  0
   -9.7560    4.3390    1.9890 C   0  0  0  0  0
   -9.1970    3.1540    1.8550 N   0  0  0  0  0
   -8.5010    2.8530    0.7640 C   0  0  0  0  0
   -2.0860   -2.7680   -0.6810 O   0  0  0  0  0
    6.9690    1.6240   -2.1990 N   0  0  0  0  0
    7.1590    2.7210   -2.9270 C   0  0  0  0  0
    6.6350    2.7760   -4.0260 O   0  0  0  0  0
    7.8910    3.7710   -2.5280 N   0  0  0  0  0
    8.5020    3.7820   -1.3200 C   0  0  0  0  0
    9.1670    4.7320   -0.9550 O   0  0  0  0  0
    8.3270    2.5880   -0.4640 C   0  0  0  0  0
    8.8740    2.4930    0.7210 N   0  0  0  0  0
    8.6960    1.3980    1.4710 C   0  0  0  0  0
    9.2940    1.3160    2.7440 C   0  0  0  0  0
    9.1140    0.2030    3.5090 C   0  0  0  0  0
    9.7560    0.1230    4.8700 C   0  0  0  0  0
    8.3440   -0.8590    3.0480 C   0  0  0  0  0
    8.1600   -2.0790    3.9140 C   0  0  0  0  0
    7.7470   -0.8080    1.8080 C   0  0  0  0  0
    7.9140    0.3170    1.0040 C   0  0  0  0  0
    7.3190    0.3730   -0.2380 N   0  0  0  0  0
    7.5040    1.4900   -0.9970 C   0  0  0  0  0
    6.5070   -0.7410   -0.7310 C   0  0  0  0  0
    5.0490   -0.5340   -0.3140 C   0  0  0  0  0
    4.9660   -0.4780    1.1120 O   0  0  0  0  0
    4.2010   -1.6990   -0.8290 C   0  0  0  0  0
    4.2850   -1.7550   -2.2540 O   0  0  0  0  0
    2.7440   -1.4920   -0.4110 C   0  0  0  0  0
    2.6600   -1.4360    1.0140 O   0  0  0  0  0
    1.8950   -2.6560   -0.9260 C   0  0  0  0  0
    0.5180   -2.4060   -0.6380 O   0  0  0  0  0
   -0.6610   -3.4260   -1.0400 P   0  0  0  0  0
   -0.5980   -3.7060   -2.4910 O   0  0  0  0  0
   -0.4840   -4.8010   -0.2200 O   0  0  0  0  0
   -3.7380   -1.6820   -2.7520 H   0  0  0  0  0
   -6.4040   -2.2110   -1.1230 H   0  0  0  0  0
   -6.2740   -3.5390    0.0550 H   0  0  0  0  0
   -6.2390   -1.8230    1.9020 H   0  0  0  0  0
   -8.4830   -2.5870    0.1990 H   0  0  0  0  0
   -9.5380   -2.5160    2.3410 H   0  0  0  0  0
   -9.0940   -0.3900   -0.3730 H   0  0  0  0  0
  -10.6790   -0.8900    1.3880 H   0  0  0  0  0
   -7.6300    0.6460    2.1200 H   0  0  0  0  0
   -6.6900    1.3820   -1.4940 H   0  0  0  0  0
   -7.3510    3.7100   -2.0520 H   0  0  0  0  0
   -8.3700    5.9000   -1.8290 H   0  0  0  0  0
   -9.2990    6.9220   -0.8720 H   0  0  0  0  0
  -10.3180    4.5490    2.8860 H   0  0  0  0  0
    7.9850    4.5370   -3.1150 H   0  0  0  0  0
    9.8940    2.1340    3.1130 H   0  0  0  0  0
    9.0740    0.5270    5.6180 H   0  0  0  0  0
    9.9780   -0.9180    5.1060 H   0  0  0  0  0
   10.6800    0.7010    4.8700 H   0  0  0  0  0
    7.2790   -1.9490    4.5430 H   0  0  0  0  0
    8.0290   -2.9570    3.2820 H   0  0  0  0  0
    9.0390   -2.2130    4.5440 H   0  0  0  0  0
    7.1510   -1.6380    1.4590 H   0  0  0  0  0
    6.5710   -0.7840   -1.8190 H   0  0  0  0  0
    6.8770   -1.6750   -0.3090 H   0  0  0  0  0
    4.6800    0.4000   -0.7370 H   0  0  0  0  0
    5.2790   -1.2780    1.5560 H   0  0  0  0  0
    4.5710   -2.6330   -0.4060 H   0  0  0  0  0
    3.9710   -0.9550   -2.6990 H   0  0  0  0  0
    2.3740   -0.5580   -0.8340 H   0  0  0  0  0
    2.9730   -2.2350    1.4580 H   0  0  0  0  0
    2.0290   -2.7540   -2.0040 H   0  0  0  0  0
    2.2080   -3.5780   -0.4360 H   0  0  0  0  0
   -0.5150   -4.6930    0.7400 H   0  0  0  0  0
  1  2  2  0  0  0
  1  3  1  0  0  0
  1  4  1  0  0  0
  1 23  1  0  0  0
  3 54  1  0  0  0
  4  5  1  0  0  0
  5  6  1  0  0  0
  5 55  1  0  0  0
  5 56  1  0  0  0
  6  7  1  0  0  0
  6  8  1  0  0  0
  6 57  1  0  0  0
  7 12  1  0  0  0
  8  9  1  0  0  0
  8 10  1  0  0  0
  8 58  1  0  0  0
  9 59  1  0  0  0
 10 11  1  0  0  0
 10 12  1  0  0  0
 10 60  1  0  0  0
 11 61  1  0  0  0
 12 13  1  0  0  0
 12 62  1  0  0  0
 13 14  1  0  0  0
 13 22  1  0  0  0
 14 15  2  0  0  0
 14 63  1  0  0  0
 15 16  1  0  0  0
 15 64  1  0  0  0
 16 17  2  0  0  0
 16 22  1  0  0  0
 17 18  1  0  0  0
 17 19  1  0  0  0
 18 65  1  0  0  0
 18 66  1  0  0  0
 19 20  2  0  0  0
 20 21  1  0  0  0
 20 67  1  0  0  0
 21 22  2  0  0  0
 23 51  1  0  0  0
 24 25  1  0  0  0
 24 41  2  0  0  0
 25 26  2  0  0  0
 25 27  1  0  0  0
 27 28  1  0  0  0
 27 68  1  0  0  0
 28 29  2  0  0  0
 28 30  1  0  0  0
 30 31  2  0  0  0
 30 41  1  0  0  0
 31 32  1  0  0  0
 32 33  2  0  0  0
 32 39  1  0  0  0
 33 34  1  0  0  0
 33 69  1  0  0  0
 34 35  1  0  0  0
 34 36  2  0  0  0
 35 70  1  0  0  0
 35 71  1  0  0  0
 35 72  1  0  0  0
 36 37  1  0  0  0
 36 38  1  0  0  0
 37 73  1  0  0  0
 37 74  1  0  0  0
 37 75  1  0  0  0
 38 39  2  0  0  0
 38 76  1  0  0  0
 39 40  1  0  0  0
 40 41  1  0  0  0
 40 42  1  0  0  0
 42 43  1  0  0  0
 42 77  1  0  0  0
 42 78  1  0  0  0
 43 44  1  0  0  0
 43 45  1  0  0  0
 43 79  1  0  0  0
 44 80  1  0  0  0
 45 46  1  0  0  0
 45 47  1  0  0  0
 45 81  1  0  0  0
 46 82  1  0  0  0
 47 48  1  0  0  0
 47 49  1  0  0  0
 47 83  1  0  0  0
 48 84  1  0  0  0
 49 50  1  0  0  0
 49 85  1  0  0  0
 49 86  1  0  0  0
 50 51  1  0  0  0
 51 52  2  0  0  0
 51 53  1  0  0  0
 53 87  1  0  0  0
M  CHG  1  15   1
M  END
$$$$
