FBP
  CCTOOLS-0919241035

 34 34  0  0  1  0  0  0  0  0999 V2000
   -1.3370    0.2200    3.9370 P   0  0  0  0  0
   -1.4790    1.6760    3.7190 O   0  0  0  0  0
   -2.7730   -0.4110    4.2980 O   0  0  0  0  0
   -0.3150   -0.0430    5.1530 O   0  0  0  0  0
   -0.7680   -0.4700    2.5990 O   0  0  0  0  0
    0.5010    0.1290    2.3330 C   0  0  0  0  0
    1.0990   -0.4850    1.0660 C   0  0  0  0  0
    1.2510   -1.8960    1.2370 O   0  0  0  0  0
    2.4720    0.1560    0.7710 C   0  0  0  0  0
    3.5380   -0.6950    1.1940 O   0  0  0  0  0
    2.4500    0.2840   -0.7760 C   0  0  0  0  0
    3.2630    1.3750   -1.2140 O   0  0  0  0  0
    0.9480    0.5720   -1.0270 C   0  0  0  0  0
    0.2470   -0.2200   -0.0540 O   0  0  0  0  0
    0.5510    0.1470   -2.4420 C   0  0  0  0  0
   -0.8490    0.3610   -2.6280 O   0  0  0  0  0
   -1.1950   -0.1030   -4.1300 P   0  0  0  0  0
   -0.8560   -1.5340   -4.2940 O   0  0  0  0  0
   -2.7660    0.1110   -4.4100 O   0  0  0  0  0
   -0.3390    0.7730   -5.1740 O   0  0  0  0  0
   -3.0780    0.0280    5.1040 H   0  0  0  0  0
   -0.2510   -1.0020    5.2620 H   0  0  0  0  0
    1.1700   -0.0490    3.1740 H   0  0  0  0  0
    0.3730    1.2020    2.1900 H   0  0  0  0  0
    0.3700   -2.2510    1.4180 H   0  0  0  0  0
    2.5510    1.1360    1.2400 H   0  0  0  0  0
    4.3610   -0.2800    0.9020 H   0  0  0  0  0
    2.7560   -0.6460   -1.2520 H   0  0  0  0  0
    4.1750    1.1560   -0.9790 H   0  0  0  0  0
    0.7360    1.6300   -0.8760 H   0  0  0  0  0
    1.1080    0.7390   -3.1680 H   0  0  0  0  0
    0.7790   -0.9080   -2.5820 H   0  0  0  0  0
   -2.9300   -0.1780   -5.3180 H   0  0  0  0  0
   -0.5890    1.6970   -5.0350 H   0  0  0  0  0
  1  2  2  0  0  0
  1  3  1  0  0  0
  1  4  1  0  0  0
  1  5  1  0  0  0
  3 21  1  0  0  0
  4 22  1  0  0  0
  5  6  1  0  0  0
  6  7  1  0  0  0
  6 23  1  0  0  0
  6 24  1  0  0  0
  7  8  1  0  0  0
  7  9  1  0  0  0
  7 14  1  0  0  0
  8 25  1  0  0  0
  9 10  1  0  0  0
  9 11  1  0  0  0
  9 26  1  0  0  0
 10 27  1  0  0  0
 11 12  1  0  0  0
 11 13  1  0  0  0
 11 28  1  0  0  0
 12 29  1  0  0  0
 13 14  1  0  0  0
 13 15  1  0  0  0
 13 30  1  0  0  0
 15 16  1  0  0  0
 15 31  1  0  0  0
 15 32  1  0  0  0
 16 17  1  0  0  0
 17 18  2  0  0  0
 17 19  1  0  0  0
 17 20  1  0  0  0
 19 33  1  0  0  0
 20 34  1  0  0  0
M  END
$$$$
