FBR
  CCTOOLS-0919241035

 39 41  0  0  1  0  0  0  0  0999 V2000
    4.9380   -1.6850   -2.3400 C   0  0  0  0  0
    5.5960   -2.3300   -3.5650 C   0  0  0  0  0
    6.5940   -3.4000   -3.1530 C   0  0  0  0  0
    6.0190   -4.3860   -2.1540 C   0  0  0  0  0
    6.5870   -5.4650   -1.9740 O   0  0  0  0  0
    4.7850   -4.0250   -1.3710 C   0  0  0  0  0
    4.0020   -5.4310   -0.4180 BR  0  0  0  0  0
    4.3190   -2.7650   -1.4490 C   0  0  0  0  0
    3.0990   -2.1600   -0.8830 C   0  0  0  0  0
    2.3190   -2.4950    0.2160 C   0  0  0  0  0
    1.2010   -1.7120    0.5250 C   0  0  0  0  0
    0.8720   -0.5960   -0.2530 C   0  0  0  0  0
   -0.2210    0.1510    0.0630 O   0  0  0  0  0
    1.6650   -0.2420   -1.3420 C   0  0  0  0  0
    2.7770   -1.0200   -1.6330 C   0  0  0  0  0
    3.7440   -0.7910   -2.7560 C   0  0  0  0  0
    5.9590   -0.8520   -1.5340 C   0  0  0  0  0
    6.5530    0.2490   -2.3970 C   0  0  0  0  0
    7.5430    1.0870   -1.5880 C   0  0  0  0  0
    8.1260    2.2170   -2.4200 C   0  0  0  0  0
    6.0950   -1.5710   -4.1790 H   0  0  0  0  0
    4.8300   -2.7950   -4.2010 H   0  0  0  0  0
    7.4820   -2.9450   -2.7000 H   0  0  0  0  0
    6.9110   -3.9560   -4.0420 H   0  0  0  0  0
    2.5570   -3.3320    0.8620 H   0  0  0  0  0
    0.5840   -1.9660    1.3830 H   0  0  0  0  0
   -0.3310    0.8730   -0.5760 H   0  0  0  0  0
    1.4170    0.6290   -1.9390 H   0  0  0  0  0
    3.2850   -1.1140   -3.6970 H   0  0  0  0  0
    4.0290    0.2630   -2.8370 H   0  0  0  0  0
    6.7340   -1.5280   -1.1770 H   0  0  0  0  0
    5.4440   -0.4350   -0.6710 H   0  0  0  0  0
    7.0640   -0.1880   -3.2640 H   0  0  0  0  0
    5.7550    0.8940   -2.7840 H   0  0  0  0  0
    8.3580    0.4520   -1.2230 H   0  0  0  0  0
    7.0420    1.5090   -0.7090 H   0  0  0  0  0
    7.3390    2.8910   -2.7740 H   0  0  0  0  0
    8.6620    1.8270   -3.2910 H   0  0  0  0  0
    8.8310    2.8030   -1.8220 H   0  0  0  0  0
  1  2  1  0  0  0
  1  8  1  0  0  0
  1 16  1  0  0  0
  1 17  1  0  0  0
  2  3  1  0  0  0
  2 21  1  0  0  0
  2 22  1  0  0  0
  3  4  1  0  0  0
  3 23  1  0  0  0
  3 24  1  0  0  0
  4  5  2  0  0  0
  4  6  1  0  0  0
  6  7  1  0  0  0
  6  8  2  0  0  0
  8  9  1  0  0  0
  9 10  2  0  0  0
  9 15  1  0  0  0
 10 11  1  0  0  0
 10 25  1  0  0  0
 11 12  2  0  0  0
 11 26  1  0  0  0
 12 13  1  0  0  0
 12 14  1  0  0  0
 13 27  1  0  0  0
 14 15  2  0  0  0
 14 28  1  0  0  0
 15 16  1  0  0  0
 16 29  1  0  0  0
 16 30  1  0  0  0
 17 18  1  0  0  0
 17 31  1  0  0  0
 17 32  1  0  0  0
 18 19  1  0  0  0
 18 33  1  0  0  0
 18 34  1  0  0  0
 19 20  1  0  0  0
 19 35  1  0  0  0
 19 36  1  0  0  0
 20 37  1  0  0  0
 20 38  1  0  0  0
 20 39  1  0  0  0
M  END
$$$$
