FEL
  CCTOOLS-0919241035

 10  9  0  0  0  0  0  0  0  0999 V2000
   -0.0110   -0.0110    0.2750 FE  0  1  0  0  0
   -1.6400   -0.4510   -0.3210 O   0  0  0  0  0
    1.1850   -1.2020   -0.3210 O   0  0  0  0  0
    0.4230    1.6200   -0.3220 O   0  0  0  0  0
    0.0000    0.0000    0.0000 H   0  0  0  0  0
   -2.2520    0.2150    0.0220 H   0  0  0  0  0
    0.0000    0.0000    0.0000 H   0  0  0  0  0
    2.0470   -0.9290    0.0210 H   0  0  0  0  0
    0.0000    0.0000    0.0000 H   0  0  0  0  0
    1.3050    1.8180    0.0210 H   0  0  0  0  0
  1  2  1  0  0  0
  1  3  1  0  0  0
  1  4  1  0  0  0
  2  5  1  0  0  0
  2  6  1  0  0  0
  3  7  1  0  0  0
  3  8  1  0  0  0
  4  9  1  0  0  0
  4 10  1  0  0  0
M  CHG  1   1   3
M  END
$$$$
