FER
  CCTOOLS-0919241035

 24 24  0  0  0  0  0  0  0  0999 V2000
   -1.0390    0.0120    2.4930 C   0  0  0  0  0
   -1.9190    0.0190    1.4180 C   0  0  0  0  0
   -1.4370    0.0130    0.1280 C   0  0  0  0  0
    0.3370    0.0090    2.2710 C   0  0  0  0  0
    0.8290    0.0040    0.9810 C   0  0  0  0  0
   -0.0560    0.0060   -0.1010 C   0  0  0  0  0
    2.5170   -0.0010    2.7840 C   0  0  0  0  0
    0.4610   -0.0000   -1.4770 C   0  0  0  0  0
   -0.3960    0.0010   -2.5210 C   0  0  0  0  0
    0.1030   -0.0040   -3.8480 C   0  0  0  0  0
    1.3030   -0.0120   -4.0460 O   0  0  0  0  0
   -0.7520   -0.0030   -4.8910 O   0  0  0  0  0
   -1.5210    0.0170    3.7620 O   0  0  0  0  0
    1.1950    0.0070    3.3260 O   0  0  0  0  0
   -2.9840    0.0250    1.5950 H   0  0  0  0  0
   -2.1230    0.0150   -0.7040 H   0  0  0  0  0
    1.8950   -0.0010    0.8090 H   0  0  0  0  0
    3.2430   -0.0030    3.5960 H   0  0  0  0  0
    2.6530   -0.8930    2.1730 H   0  0  0  0  0
    2.6630    0.8860    2.1680 H   0  0  0  0  0
    1.5260   -0.0060   -1.6530 H   0  0  0  0  0
   -1.4610    0.0070   -2.3450 H   0  0  0  0  0
   -0.2140   -0.0080   -5.6940 H   0  0  0  0  0
   -1.6280   -0.9060    4.0250 H   0  0  0  0  0
  1  2  2  0  0  0
  1  4  1  0  0  0
  1 13  1  0  0  0
  2  3  1  0  0  0
  2 15  1  0  0  0
  3  6  2  0  0  0
  3 16  1  0  0  0
  4  5  2  0  0  0
  4 14  1  0  0  0
  5  6  1  0  0  0
  5 17  1  0  0  0
  6  8  1  0  0  0
  7 14  1  0  0  0
  7 18  1  0  0  0
  7 19  1  0  0  0
  7 20  1  0  0  0
  8  9  2  0  0  0
  8 21  1  0  0  0
  9 10  1  0  0  0
  9 22  1  0  0  0
 10 11  2  0  0  0
 10 12  1  0  0  0
 12 23  1  0  0  0
 13 24  1  0  0  0
M  END
$$$$
