FFA
  CCTOOLS-0919241035

 49 52  0  0  1  0  0  0  0  0999 V2000
   -0.1090    1.0790    4.5470 C   0  0  0  0  0
    0.0510    2.5540    4.2140 C   0  0  0  0  0
    0.7770    2.7210    2.9060 C   0  0  0  0  0
    0.5270    1.7270    1.8370 C   0  0  0  0  0
   -0.2260    0.6360    2.0570 C   0  0  0  0  0
   -0.8090    0.2580    3.4250 C   0  0  0  0  0
   -0.5540   -1.2740    3.7010 C   0  0  0  0  0
   -0.9760   -2.1840    2.5050 C   0  0  0  0  0
   -0.2560   -1.7390    1.2260 C   0  0  0  0  0
   -0.5560   -0.2810    0.9030 C   0  0  0  0  0
   -1.1460   -1.7780    5.0460 C   0  0  0  0  0
   -0.9110   -3.2790    5.2950 C   0  0  0  0  0
   -0.6510   -3.6420    2.8510 C   0  0  0  0  0
   -1.3900   -4.1320    4.1120 C   0  0  0  0  0
   -0.9450   -4.7240    1.8170 C   0  0  0  0  0
   -1.0020   -6.0300    2.6340 C   0  0  0  0  0
   -0.9690   -5.6170    4.1210 C   0  0  0  0  0
   -2.9350   -4.0680    4.0110 C   0  0  0  0  0
   -2.3150    0.6030    3.4190 C   0  0  0  0  0
    1.5050    3.6860    2.6860 O   0  0  0  0  0
    0.3580   -5.7720    4.6150 O   0  0  0  0  0
    0.8900    0.6630    4.7390 H   0  0  0  0  0
   -0.6690    0.9960    5.4870 H   0  0  0  0  0
    0.6330    3.0430    5.0030 H   0  0  0  0  0
   -0.9190    3.0560    4.1410 H   0  0  0  0  0
    0.9330    1.9550    0.8570 H   0  0  0  0  0
    0.5370   -1.3940    3.7980 H   0  0  0  0  0
   -2.0570   -2.0840    2.3440 H   0  0  0  0  0
   -0.5720   -2.3580    0.3780 H   0  0  0  0  0
    0.8280   -1.8780    1.3340 H   0  0  0  0  0
   -1.6210   -0.1720    0.6610 H   0  0  0  0  0
   -0.0030    0.0000   -0.0020 H   0  0  0  0  0
   -2.2240   -1.5780    5.0700 H   0  0  0  0  0
   -0.7060   -1.2270    5.8840 H   0  0  0  0  0
    0.1610   -3.4280    5.4730 H   0  0  0  0  0
   -1.4250   -3.5830    6.2150 H   0  0  0  0  0
    0.4350   -3.6880    3.0390 H   0  0  0  0  0
   -0.1760   -4.7730    1.0390 H   0  0  0  0  0
   -1.9090   -4.5490    1.3240 H   0  0  0  0  0
   -1.9330   -6.5570    2.4020 H   0  0  0  0  0
   -0.1640   -6.6860    2.3770 H   0  0  0  0  0
   -1.6240   -6.2450    4.7320 H   0  0  0  0  0
   -3.3740   -3.8160    4.9810 H   0  0  0  0  0
   -3.2410   -3.3080    3.2860 H   0  0  0  0  0
   -3.3400   -5.0330    3.6900 H   0  0  0  0  0
   -2.6320    0.9600    4.4030 H   0  0  0  0  0
   -2.5280    1.3840    2.6830 H   0  0  0  0  0
   -2.9100   -0.2800    3.1650 H   0  0  0  0  0
    0.9080   -6.0320    3.8590 H   0  0  0  0  0
  1  6  1  0  0  0
  1  2  1  0  0  0
  1 22  1  0  0  0
  1 23  1  0  0  0
  2  3  1  0  0  0
  2 24  1  0  0  0
  2 25  1  0  0  0
  3  4  1  0  0  0
  3 20  2  0  0  0
  4  5  2  0  0  0
  4 26  1  0  0  0
  5  6  1  0  0  0
  5 10  1  0  0  0
  6  7  1  0  0  0
  6 19  1  0  0  0
  7 11  1  0  0  0
  7  8  1  0  0  0
  7 27  1  0  0  0
  8 13  1  0  0  0
  8  9  1  0  0  0
  8 28  1  0  0  0
  9 10  1  0  0  0
  9 29  1  0  0  0
  9 30  1  0  0  0
 10 31  1  0  0  0
 10 32  1  0  0  0
 11 12  1  0  0  0
 11 33  1  0  0  0
 11 34  1  0  0  0
 12 14  1  0  0  0
 12 35  1  0  0  0
 12 36  1  0  0  0
 13 14  1  0  0  0
 13 15  1  0  0  0
 13 37  1  0  0  0
 14 17  1  0  0  0
 14 18  1  0  0  0
 15 16  1  0  0  0
 15 38  1  0  0  0
 15 39  1  0  0  0
 16 17  1  0  0  0
 16 40  1  0  0  0
 16 41  1  0  0  0
 17 21  1  0  0  0
 17 42  1  0  0  0
 18 43  1  0  0  0
 18 44  1  0  0  0
 18 45  1  0  0  0
 19 46  1  0  0  0
 19 47  1  0  0  0
 19 48  1  0  0  0
 21 49  1  0  0  0
M  END
$$$$
