FHM
  CCTOOLS-0919241035

 42 43  0  0  1  0  0  0  0  0999 V2000
    6.6420    0.8450   -0.0160 C   0  0  0  0  0
    7.6590    0.0050    0.3960 C   0  0  0  0  0
    7.3690   -1.2870    0.8020 C   0  0  0  0  0
    8.3640   -2.1070    1.2040 F   0  0  0  0  0
    6.0600   -1.7380    0.7950 C   0  0  0  0  0
    5.0410   -0.8990    0.3880 C   0  0  0  0  0
    5.3310    0.3940   -0.0230 C   0  0  0  0  0
    4.3290    1.2190   -0.4280 O   0  0  0  0  0
    3.1130    0.4760   -0.3240 C   0  0  0  0  0
    1.9400    1.3520   -0.7670 C   0  0  0  0  0
    1.8650    2.5070    0.0710 O   0  0  0  0  0
    2.1490    1.7880   -2.2190 C   0  0  0  0  0
    0.6580    0.5680   -0.6570 C   0  0  0  0  0
    0.6810   -0.6430   -0.7130 O   0  0  0  0  0
   -0.5150    1.2130   -0.4970 N   0  0  0  0  0
   -1.7160    0.4950   -0.5100 C   0  0  0  0  0
   -2.7790    0.9030    0.2850 C   0  0  0  0  0
   -1.8450   -0.6300   -1.3130 C   0  0  0  0  0
   -3.0310   -1.3370   -1.3240 C   0  0  0  0  0
   -4.0900   -0.9250   -0.5350 C   0  0  0  0  0
   -5.3610   -1.6840   -0.5500 N   0  3  0  0  0
   -5.4730   -2.6710   -1.2550 O   0  0  0  0  0
   -6.2940   -1.3230    0.1440 O   0  5  0  0  0
   -3.9650    0.1950    0.2660 C   0  0  0  0  0
   -5.1210    0.6400    1.1230 C   0  0  0  0  0
   -4.7570    1.7870    1.8380 F   0  0  0  0  0
   -6.2220    0.9290    0.3080 F   0  0  0  0  0
   -5.4580   -0.3800    2.0180 F   0  0  0  0  0
    6.8690    1.8520   -0.3320 H   0  0  0  0  0
    8.6800    0.3560    0.4020 H   0  0  0  0  0
    5.8350   -2.7460    1.1120 H   0  0  0  0  0
    4.0200   -1.2510    0.3840 H   0  0  0  0  0
    2.9650    0.1660    0.7100 H   0  0  0  0  0
    3.1700   -0.4050   -0.9630 H   0  0  0  0  0
    1.7340    2.1890    0.9750 H   0  0  0  0  0
    3.0760    2.3550   -2.2980 H   0  0  0  0  0
    2.2060    0.9070   -2.8580 H   0  0  0  0  0
    1.3130    2.4120   -2.5340 H   0  0  0  0  0
   -0.5260    2.1750   -0.3720 H   0  0  0  0  0
   -2.6810    1.7770    0.9110 H   0  0  0  0  0
   -1.0180   -0.9520   -1.9300 H   0  0  0  0  0
   -3.1330   -2.2120   -1.9490 H   0  0  0  0  0
  1  2  2  0  0  0
  1  7  1  0  0  0
  1 29  1  0  0  0
  2  3  1  0  0  0
  2 30  1  0  0  0
  3  4  1  0  0  0
  3  5  2  0  0  0
  5  6  1  0  0  0
  5 31  1  0  0  0
  6  7  2  0  0  0
  6 32  1  0  0  0
  7  8  1  0  0  0
  8  9  1  0  0  0
  9 10  1  0  0  0
  9 33  1  0  0  0
  9 34  1  0  0  0
 10 11  1  0  0  0
 10 12  1  0  0  0
 10 13  1  0  0  0
 11 35  1  0  0  0
 12 36  1  0  0  0
 12 37  1  0  0  0
 12 38  1  0  0  0
 13 14  2  0  0  0
 13 15  1  0  0  0
 15 16  1  0  0  0
 15 39  1  0  0  0
 16 17  2  0  0  0
 16 18  1  0  0  0
 17 24  1  0  0  0
 17 40  1  0  0  0
 18 19  2  0  0  0
 18 41  1  0  0  0
 19 20  1  0  0  0
 19 42  1  0  0  0
 20 21  1  0  0  0
 20 24  2  0  0  0
 21 22  2  0  0  0
 21 23  1  0  0  0
 24 25  1  0  0  0
 25 26  1  0  0  0
 25 27  1  0  0  0
 25 28  1  0  0  0
M  CHG  1  21   1
M  CHG  1  23  -1
M  END
$$$$
