FHO
  CCTOOLS-1004241121

 24 23  0  0  1  0  0  0  0  0999 V2000
    1.8940    1.7130    0.5120 N   0  0  0  0  0
    2.0170    0.2490    0.5200 C   0  0  0  0  0
    0.9510   -0.3570   -0.3950 C   0  0  0  0  0
   -0.4380   -0.0650    0.1780 C   0  0  0  0  0
   -1.5040   -0.6710   -0.7360 C   0  0  0  0  0
   -2.8330   -0.3910   -0.1880 N   0  0  0  0  0
   -3.5660   -1.4200    0.4530 O   0  0  0  0  0
   -3.3590    0.8450   -0.2940 C   0  0  0  0  0
   -4.4600    1.0770    0.1600 O   0  0  0  0  0
    3.3860   -0.1420    0.0240 C   0  0  0  0  0
    4.0370    0.6370   -0.6300 O   0  0  0  0  0
    3.8800   -1.3570    0.3080 O   0  0  0  0  0
    2.5460    2.1340    1.1570 H   0  0  0  0  0
    2.0190    2.0810   -0.4190 H   0  0  0  0  0
    1.8790   -0.1220    1.5350 H   0  0  0  0  0
    1.0330    0.0800   -1.3890 H   0  0  0  0  0
    1.0980   -1.4350   -0.4590 H   0  0  0  0  0
   -0.5200   -0.5030    1.1730 H   0  0  0  0  0
   -0.5840    1.0130    0.2420 H   0  0  0  0  0
   -1.4220   -0.2340   -1.7310 H   0  0  0  0  0
   -1.3570   -1.7500   -0.8000 H   0  0  0  0  0
   -2.8010    1.6290   -0.7830 H   0  0  0  0  0
    4.7620   -1.5630   -0.0310 H   0  0  0  0  0
   -4.4310   -1.1400    0.7820 H   0  0  0  0  0
  1  2  1  0  0  0
  1 13  1  0  0  0
  1 14  1  0  0  0
  2  3  1  0  0  0
  2 10  1  0  0  0
  2 15  1  0  0  0
  3  4  1  0  0  0
  3 16  1  0  0  0
  3 17  1  0  0  0
  4  5  1  0  0  0
  4 18  1  0  0  0
  4 19  1  0  0  0
  5  6  1  0  0  0
  5 20  1  0  0  0
  5 21  1  0  0  0
  6  7  1  0  0  0
  6  8  1  0  0  0
  7 24  1  0  0  0
  8  9  2  0  0  0
  8 22  1  0  0  0
 10 11  2  0  0  0
 10 12  1  0  0  0
 12 23  1  0  0  0
M  END
$$$$
