FK1
  CCTOOLS-0919241036

 16 17  0  0  0  0  0  0  0  0999 V2000
   -0.5960    0.1790   -0.0000 C   0  0  0  0  0
    2.7850   -1.4110   -0.0010 N   0  0  0  0  0
   -2.4530   -0.1780   -0.0000 BR  0  0  0  0  0
   -0.1490    1.4940    0.0000 C   0  0  0  0  0
    1.1890    1.7720    0.0010 C   0  0  0  0  0
    2.1140    0.7260   -0.0000 C   0  0  0  0  0
    3.5780    0.6620    0.0000 C   0  0  0  0  0
    3.9140   -0.6370   -0.0010 C   0  0  0  0  0
    1.6670   -0.6080   -0.0010 C   0  0  0  0  0
    0.3010   -0.8680    0.0050 C   0  0  0  0  0
    2.7740   -2.3810   -0.0020 H   0  0  0  0  0
   -0.8640    2.3030    0.0010 H   0  0  0  0  0
    1.5300    2.7970    0.0010 H   0  0  0  0  0
    4.2580    1.5010    0.0000 H   0  0  0  0  0
    4.9250   -1.0160   -0.0000 H   0  0  0  0  0
   -0.0570   -1.8870    0.0090 H   0  0  0  0  0
  1  3  1  0  0  0
  1  4  2  0  0  0
  1 10  1  0  0  0
  2  8  1  0  0  0
  2  9  1  0  0  0
  2 11  1  0  0  0
  4  5  1  0  0  0
  4 12  1  0  0  0
  5  6  2  0  0  0
  5 13  1  0  0  0
  6  7  1  0  0  0
  6  9  1  0  0  0
  7  8  2  0  0  0
  7 14  1  0  0  0
  8 15  1  0  0  0
  9 10  2  0  0  0
 10 16  1  0  0  0
M  END
$$$$
