FLI
  CCTOOLS-0919241036

102102  0  0  1  0  0  0  0  0999 V2000
   -5.1200    0.1630    0.7970 C   0  0  0  0  0
   -5.8010   -0.3390    1.6570 O   0  0  0  0  0
   -3.7600   -0.4090    0.4780 C   0  0  0  0  0
   -3.7630   -1.9280    0.6380 C   0  0  0  0  0
   -2.3600   -2.4120    1.0020 C   0  0  0  0  0
   -2.1640   -3.8610    0.5520 C   0  0  0  0  0
   -1.2010   -4.5720    1.5000 C   0  0  0  0  0
    0.1780   -4.7730    0.8840 C   0  0  0  0  0
    0.7700   -3.4460    0.4100 C   0  0  0  0  0
    2.2530   -3.3610    0.7840 C   0  0  0  0  0
    2.9070   -2.2010    0.0290 C   0  0  0  0  0
    3.9720   -1.5350    0.9050 C   0  0  0  0  0
    4.9580   -0.7740    0.0200 C   0  0  0  0  0
    5.5100    0.4380    0.7740 C   0  0  0  0  0
    6.6950    1.0300    0.0040 C   0  0  0  0  0
    6.6240    2.5580    0.0130 C   0  0  0  0  0
    5.2900    2.9820   -0.5520 C   0  0  0  0  0
    4.3040    3.3500    0.2660 C   0  0  0  0  0
    2.9970    3.7240   -0.2570 C   0  0  0  0  0
    1.9440    3.8750    0.5800 C   0  0  0  0  0
   -3.3980   -0.0520   -0.9660 C   0  0  0  0  0
    0.6680    4.1160    0.0430 C   0  0  0  0  0
   -0.4330    4.0560    0.8250 C   0  0  0  0  0
   -1.7210    4.1540    0.2670 C   0  0  0  0  0
   -2.7840    3.8810    1.0530 C   0  0  0  0  0
   -4.1430    3.8380    0.5250 C   0  0  0  0  0
   -5.1240    3.4380    1.3350 C   0  0  0  0  0
   -6.5430    3.3350    0.8290 C   0  0  0  0  0
   -6.8070    1.8540    0.5020 C   0  0  0  0  0
   -7.7990    1.7620   -0.6580 C   0  0  0  0  0
    5.1030    2.9820   -2.0480 C   0  0  0  0  0
   -1.9620   -0.4940   -1.2560 C   0  0  0  0  0
   -5.5510    1.2380    0.1210 O   0  0  0  0  0
   -1.5530   -0.0170   -2.6510 C   0  0  0  0  0
   -0.1650   -0.5640   -2.9900 C   0  0  0  0  0
    0.1910   -0.1910   -4.4310 C   0  0  0  0  0
    1.5790   -0.7380   -4.7700 C   0  0  0  0  0
   -4.1760   -2.5300   -0.5910 O   0  0  0  0  0
   -1.6720   -3.8840   -0.7860 O   0  0  0  0  0
    0.1010   -5.6920   -0.2080 O   0  0  0  0  0
    2.9030   -4.5820    0.4300 O   0  0  0  0  0
    4.6740   -2.5360    1.6460 O   0  0  0  0  0
    5.9490    0.0280    2.0720 O   0  0  0  0  0
    6.7670    3.0450    1.3470 O   0  0  0  0  0
   -3.0230    0.0250    1.1530 H   0  0  0  0  0
   -4.4570   -2.2100    1.4300 H   0  0  0  0  0
   -1.6140   -1.7820    0.5200 H   0  0  0  0  0
   -2.2310   -2.3540    2.0850 H   0  0  0  0  0
   -3.1320   -4.3740    0.5830 H   0  0  0  0  0
   -1.1060   -3.9920    2.4210 H   0  0  0  0  0
   -1.6200   -5.5510    1.7600 H   0  0  0  0  0
    0.8400   -5.2000    1.6480 H   0  0  0  0  0
    0.6740   -3.3690   -0.6740 H   0  0  0  0  0
    0.2360   -2.6190    0.8800 H   0  0  0  0  0
    2.3430   -3.1980    1.8580 H   0  0  0  0  0
    3.3770   -2.5800   -0.8800 H   0  0  0  0  0
    2.1490   -1.4650   -0.2380 H   0  0  0  0  0
    3.4920   -0.8410    1.5940 H   0  0  0  0  0
    5.7810   -1.4330   -0.2580 H   0  0  0  0  0
    4.4460   -0.4340   -0.8810 H   0  0  0  0  0
    4.7230    1.1820    0.8800 H   0  0  0  0  0
    7.6260    0.7080    0.4760 H   0  0  0  0  0
    6.6760    0.6670   -1.0250 H   0  0  0  0  0
    7.4220    2.9640   -0.6110 H   0  0  0  0  0
    4.4740    3.3690    1.3360 H   0  0  0  0  0
    2.8420    3.9000   -1.3130 H   0  0  0  0  0
    2.0840    3.8120    1.6500 H   0  0  0  0  0
   -4.0790   -0.5610   -1.6480 H   0  0  0  0  0
   -3.4810    1.0260   -1.1060 H   0  0  0  0  0
    0.5570    4.3550   -1.0090 H   0  0  0  0  0
   -0.3190    3.9290    1.8960 H   0  0  0  0  0
   -1.8530    4.4430   -0.7620 H   0  0  0  0  0
   -2.6120    3.6940    2.1070 H   0  0  0  0  0
   -4.3520    4.1210   -0.4950 H   0  0  0  0  0
   -4.9040    3.1810    2.3660 H   0  0  0  0  0
   -7.2360    3.6730    1.5960 H   0  0  0  0  0
   -6.6560    3.9350   -0.0730 H   0  0  0  0  0
   -7.2190    1.3580    1.3790 H   0  0  0  0  0
   -7.3820    2.2600   -1.5330 H   0  0  0  0  0
   -7.9880    0.7150   -0.8920 H   0  0  0  0  0
   -8.7340    2.2460   -0.3760 H   0  0  0  0  0
    4.7320    2.0080   -2.3680 H   0  0  0  0  0
    4.3850    3.7540   -2.3250 H   0  0  0  0  0
    6.0580    3.1840   -2.5340 H   0  0  0  0  0
   -1.2920   -0.0620   -0.5130 H   0  0  0  0  0
   -1.9010   -1.5820   -1.2110 H   0  0  0  0  0
   -2.2750   -0.3770   -3.3840 H   0  0  0  0  0
   -1.5290    1.0720   -2.6690 H   0  0  0  0  0
    0.5710   -0.1340   -2.3110 H   0  0  0  0  0
   -0.1660   -1.6490   -2.8850 H   0  0  0  0  0
   -0.5440   -0.6210   -5.1100 H   0  0  0  0  0
    0.1930    0.8940   -4.5350 H   0  0  0  0  0
    1.5780   -1.8230   -4.6650 H   0  0  0  0  0
    1.8340   -0.4720   -5.7960 H   0  0  0  0  0
    2.3160   -0.3080   -4.0910 H   0  0  0  0  0
   -4.2020   -3.4970   -0.5660 H   0  0  0  0  0
   -1.5250   -4.7740   -1.1350 H   0  0  0  0  0
    0.9500   -5.8600   -0.6410 H   0  0  0  0  0
    3.8470   -4.6000    0.6390 H   0  0  0  0  0
    5.3650   -2.1840    2.2240 H   0  0  0  0  0
    6.3120    0.7460    2.6090 H   0  0  0  0  0
    6.7300    4.0080    1.4200 H   0  0  0  0  0
  1  2  2  0  0  0
  1  3  1  0  0  0
  1 33  1  0  0  0
  3  4  1  0  0  0
  3 21  1  0  0  0
  3 45  1  0  0  0
  4  5  1  0  0  0
  4 38  1  0  0  0
  4 46  1  0  0  0
  5  6  1  0  0  0
  5 47  1  0  0  0
  5 48  1  0  0  0
  6  7  1  0  0  0
  6 39  1  0  0  0
  6 49  1  0  0  0
  7  8  1  0  0  0
  7 50  1  0  0  0
  7 51  1  0  0  0
  8  9  1  0  0  0
  8 40  1  0  0  0
  8 52  1  0  0  0
  9 10  1  0  0  0
  9 53  1  0  0  0
  9 54  1  0  0  0
 10 11  1  0  0  0
 10 41  1  0  0  0
 10 55  1  0  0  0
 11 12  1  0  0  0
 11 56  1  0  0  0
 11 57  1  0  0  0
 12 13  1  0  0  0
 12 42  1  0  0  0
 12 58  1  0  0  0
 13 14  1  0  0  0
 13 59  1  0  0  0
 13 60  1  0  0  0
 14 15  1  0  0  0
 14 43  1  0  0  0
 14 61  1  0  0  0
 15 16  1  0  0  0
 15 62  1  0  0  0
 15 63  1  0  0  0
 16 17  1  0  0  0
 16 44  1  0  0  0
 16 64  1  0  0  0
 17 18  2  0  0  0
 17 31  1  0  0  0
 18 19  1  0  0  0
 18 65  1  0  0  0
 19 20  2  0  0  0
 19 66  1  0  0  0
 20 22  1  0  0  0
 20 67  1  0  0  0
 21 32  1  0  0  0
 21 68  1  0  0  0
 21 69  1  0  0  0
 22 23  2  0  0  0
 22 70  1  0  0  0
 23 24  1  0  0  0
 23 71  1  0  0  0
 24 25  2  0  0  0
 24 72  1  0  0  0
 25 26  1  0  0  0
 25 73  1  0  0  0
 26 27  2  0  0  0
 26 74  1  0  0  0
 27 28  1  0  0  0
 27 75  1  0  0  0
 28 29  1  0  0  0
 28 76  1  0  0  0
 28 77  1  0  0  0
 29 30  1  0  0  0
 29 33  1  0  0  0
 29 78  1  0  0  0
 30 79  1  0  0  0
 30 80  1  0  0  0
 30 81  1  0  0  0
 31 82  1  0  0  0
 31 83  1  0  0  0
 31 84  1  0  0  0
 32 34  1  0  0  0
 32 85  1  0  0  0
 32 86  1  0  0  0
 34 35  1  0  0  0
 34 87  1  0  0  0
 34 88  1  0  0  0
 35 36  1  0  0  0
 35 89  1  0  0  0
 35 90  1  0  0  0
 36 37  1  0  0  0
 36 91  1  0  0  0
 36 92  1  0  0  0
 37 93  1  0  0  0
 37 94  1  0  0  0
 37 95  1  0  0  0
 38 96  1  0  0  0
 39 97  1  0  0  0
 40 98  1  0  0  0
 41 99  1  0  0  0
 42100  1  0  0  0
 43101  1  0  0  0
 44102  1  0  0  0
M  END
$$$$
