FLN
  CCTOOLS-0919241036

 27 29  0  0  0  0  0  0  0  0999 V2000
   -0.2120    0.9010    0.1110 O   0  0  0  0  0
   -1.5580    0.8030    0.1040 C   0  0  0  0  0
   -2.1650   -0.4530   -0.0550 C   0  0  0  0  0
   -1.2990   -1.6400   -0.1980 C   0  0  0  0  0
    0.1000   -1.4300   -0.1770 C   0  0  0  0  0
    0.5860   -0.1690   -0.0230 C   0  0  0  0  0
    2.0490    0.0300   -0.0040 C   0  0  0  0  0
    2.6160    1.1320   -0.6480 C   0  0  0  0  0
    3.9830    1.3120   -0.6250 C   0  0  0  0  0
    4.7930    0.4030    0.0340 C   0  0  0  0  0
    4.2380   -0.6910    0.6740 C   0  0  0  0  0
    2.8720   -0.8800    0.6640 C   0  0  0  0  0
   -1.7710   -2.7560   -0.3330 O   0  0  0  0  0
   -3.5550   -0.5640   -0.0570 C   0  0  0  0  0
   -4.3280    0.5670    0.0860 C   0  0  0  0  0
   -3.7290    1.8100    0.2360 C   0  0  0  0  0
   -2.3560    1.9320    0.2460 C   0  0  0  0  0
    0.7770   -2.2650   -0.2820 H   0  0  0  0  0
    1.9850    1.8410   -1.1630 H   0  0  0  0  0
    4.4230    2.1630   -1.1230 H   0  0  0  0  0
    5.8630    0.5490    0.0490 H   0  0  0  0  0
    4.8760   -1.3960    1.1860 H   0  0  0  0  0
    2.4400   -1.7350    1.1640 H   0  0  0  0  0
   -4.0220   -1.5310   -0.1740 H   0  0  0  0  0
   -5.4050    0.4870    0.0800 H   0  0  0  0  0
   -4.3440    2.6900    0.3480 H   0  0  0  0  0
   -1.9000    2.9040    0.3650 H   0  0  0  0  0
  1  2  1  0  0  0
  1  6  1  0  0  0
  2  3  1  0  0  0
  2 17  2  0  0  0
  3  4  1  0  0  0
  3 14  2  0  0  0
  4  5  1  0  0  0
  4 13  2  0  0  0
  5  6  2  0  0  0
  5 18  1  0  0  0
  6  7  1  0  0  0
  7  8  2  0  0  0
  7 12  1  0  0  0
  8  9  1  0  0  0
  8 19  1  0  0  0
  9 10  2  0  0  0
  9 20  1  0  0  0
 10 11  1  0  0  0
 10 21  1  0  0  0
 11 12  2  0  0  0
 11 22  1  0  0  0
 12 23  1  0  0  0
 14 15  1  0  0  0
 14 24  1  0  0  0
 15 16  2  0  0  0
 15 25  1  0  0  0
 16 17  1  0  0  0
 16 26  1  0  0  0
 17 27  1  0  0  0
M  END
$$$$
