FLV
  CCTOOLS-0919241036

 21 22  0  0  0  0  0  0  0  0999 V2000
   -2.4710   -0.0170   -1.5170 O   0  0  0  0  0
   -1.2700   -0.0070   -1.3350 C   0  0  0  0  0
   -0.7260   -0.0050    0.0390 C   0  0  0  0  0
   -1.5730   -0.0190    1.1380 C   0  0  0  0  0
   -1.0380   -0.0120    2.4270 C   0  0  0  0  0
   -1.8680   -0.0210    3.5010 O   0  0  0  0  0
    0.3320   -0.0020    2.6170 C   0  0  0  0  0
    1.1930    0.0070    1.5230 C   0  0  0  0  0
    2.5350    0.0170    1.7140 O   0  0  0  0  0
    0.6690    0.0050    0.2280 C   0  0  0  0  0
    1.5600    0.0150   -0.9450 C   0  0  0  0  0
    2.7670    0.0240   -0.7920 O   0  0  0  0  0
    0.9920    0.0120   -2.2970 C   0  0  0  0  0
   -0.3420    0.0020   -2.4890 C   0  0  0  0  0
   -0.8380    0.0000   -3.7480 O   0  0  0  0  0
   -2.6430   -0.0310    0.9960 H   0  0  0  0  0
   -2.0460    0.9020    3.7240 H   0  0  0  0  0
    0.7350   -0.0010    3.6180 H   0  0  0  0  0
    2.8190   -0.9060    1.7510 H   0  0  0  0  0
    1.6520    0.0190   -3.1520 H   0  0  0  0  0
   -0.0790    0.0070   -4.3480 H   0  0  0  0  0
  1  2  2  0  0  0
  2  3  1  0  0  0
  2 14  1  0  0  0
  3  4  1  0  0  0
  3 10  2  0  0  0
  4  5  2  0  0  0
  4 16  1  0  0  0
  5  6  1  0  0  0
  5  7  1  0  0  0
  6 17  1  0  0  0
  7  8  2  0  0  0
  7 18  1  0  0  0
  8  9  1  0  0  0
  8 10  1  0  0  0
  9 19  1  0  0  0
 10 11  1  0  0  0
 11 12  2  0  0  0
 11 13  1  0  0  0
 13 14  2  0  0  0
 13 20  1  0  0  0
 14 15  1  0  0  0
 15 21  1  0  0  0
M  END
$$$$
