FMP
  CCTOOLS-0919241036

 37 39  0  0  1  0  0  0  0  0999 V2000
   -1.2390    0.1050   -4.5880 P   0  0  0  0  0
   -1.6710   -1.2950   -4.3840 O   0  0  0  0  0
   -2.5040    0.9970   -5.0300 O   0  0  0  0  0
   -0.1160    0.1580   -5.7400 O   0  0  0  0  0
   -0.6280    0.6830   -3.2160 O   0  0  0  0  0
    0.4840   -0.1460   -2.8770 C   0  0  0  0  0
    1.1140    0.3520   -1.5750 C   0  0  0  0  0
    0.1600    0.2750   -0.4930 O   0  0  0  0  0
    2.2730   -0.5750   -1.1460 C   0  0  0  0  0
    3.5300   -0.0240   -1.5450 O   0  0  0  0  0
    2.1660   -0.6220    0.3950 C   0  0  0  0  0
    3.3550   -0.1040    0.9960 O   0  0  0  0  0
    0.9530    0.2790    0.7130 C   0  0  0  0  0
    0.1620   -0.2900    1.8620 C   0  0  0  0  0
   -0.3840   -1.4730    1.8950 N   0  0  0  0  0
   -1.0370   -1.6560    3.1210 N   0  0  0  0  0
   -1.2930   -0.0930    5.1300 C   0  0  0  0  0
   -2.0460   -0.9250    5.9400 N   0  0  0  0  0
   -0.8750   -0.5160    3.8600 C   0  0  0  0  0
   -0.1150    0.3710    3.0770 C   0  0  0  0  0
    0.1860    1.5760    3.5780 N   0  0  0  0  0
   -0.2240    1.9220    4.7760 C   0  0  0  0  0
   -0.9440    1.1200    5.5410 N   0  0  0  0  0
   -2.8400    0.6180   -5.8540 H   0  0  0  0  0
    0.1360    1.0860   -5.8410 H   0  0  0  0  0
    1.2240   -0.1060   -3.6770 H   0  0  0  0  0
    0.1450   -1.1730   -2.7470 H   0  0  0  0  0
    1.4710    1.3750   -1.6940 H   0  0  0  0  0
    2.1420   -1.5710   -1.5700 H   0  0  0  0  0
    4.2120   -0.6430   -1.2520 H   0  0  0  0  0
    1.9820   -1.6410    0.7340 H   0  0  0  0  0
    4.0830   -0.6730    0.7110 H   0  0  0  0  0
    1.2840    1.2910    0.9460 H   0  0  0  0  0
   -1.5190   -2.4510    3.3970 H   0  0  0  0  0
   -2.3260   -0.6230    6.8190 H   0  0  0  0  0
   -2.2980   -1.8080    5.6280 H   0  0  0  0  0
    0.0360    2.9010    5.1510 H   0  0  0  0  0
  1  2  2  0  0  0
  1  3  1  0  0  0
  1  4  1  0  0  0
  1  5  1  0  0  0
  3 24  1  0  0  0
  4 25  1  0  0  0
  5  6  1  0  0  0
  6  7  1  0  0  0
  6 26  1  0  0  0
  6 27  1  0  0  0
  7  8  1  0  0  0
  7  9  1  0  0  0
  7 28  1  0  0  0
  8 13  1  0  0  0
  9 10  1  0  0  0
  9 11  1  0  0  0
  9 29  1  0  0  0
 10 30  1  0  0  0
 11 12  1  0  0  0
 11 13  1  0  0  0
 11 31  1  0  0  0
 12 32  1  0  0  0
 13 14  1  0  0  0
 13 33  1  0  0  0
 14 15  2  0  0  0
 14 20  1  0  0  0
 15 16  1  0  0  0
 16 19  1  0  0  0
 16 34  1  0  0  0
 17 18  1  0  0  0
 17 19  1  0  0  0
 17 23  2  0  0  0
 18 35  1  0  0  0
 18 36  1  0  0  0
 19 20  2  0  0  0
 20 21  1  0  0  0
 21 22  2  0  0  0
 22 23  1  0  0  0
 22 37  1  0  0  0
M  END
$$$$
