FO5
  CCTOOLS-0919241036

 35 37  0  0  0  0  0  0  0  0999 V2000
    4.6670    0.2610    0.1880 C   0  0  0  0  0
    7.7780   -1.0990   -0.2150 N   0  0  0  0  0
    5.1960    0.3100    1.2780 O   0  0  0  0  0
   -5.1730    1.1560   -0.3830 S   0  0  0  0  0
    5.4100   -0.3240   -0.9850 C   0  0  0  0  0
    3.4120    0.7250    0.0270 N   0  0  0  0  0
   -0.9700   -1.3000    0.3870 O   0  0  0  0  0
    6.7470   -0.7620   -0.5500 C   0  0  0  0  0
   -2.1610   -1.5310    0.4040 N   0  0  0  0  0
    2.6720    1.2930    1.1630 C   0  0  0  0  0
   -1.9270    0.5360   -0.1120 N   0  0  0  0  0
    1.3250    0.5740    1.2830 C   0  0  0  0  0
    0.5850    0.6580   -0.0540 C   0  0  0  0  0
    1.4090   -0.0380   -1.1400 C   0  0  0  0  0
    2.7600    0.6790   -1.2890 C   0  0  0  0  0
   -0.7550   -0.0200    0.0700 C   0  0  0  0  0
   -2.8330   -0.4460    0.1060 C   0  0  0  0  0
   -4.3020   -0.3190    0.0210 C   0  0  0  0  0
   -5.1840   -1.3150    0.2420 C   0  0  0  0  0
   -6.5070   -0.9540    0.1040 C   0  0  0  0  0
   -6.7150    0.3250   -0.2270 C   0  0  0  0  0
    4.8570   -1.1780   -1.3760 H   0  0  0  0  0
    5.5100    0.4310   -1.7650 H   0  0  0  0  0
    3.2450    1.1520    2.0790 H   0  0  0  0  0
    2.5040    2.3570    0.9940 H   0  0  0  0  0
    1.4930   -0.4720    1.5410 H   0  0  0  0  0
    0.7270    1.0490    2.0600 H   0  0  0  0  0
    0.4400    1.7040   -0.3240 H   0  0  0  0  0
    1.5760   -1.0780   -0.8590 H   0  0  0  0  0
    0.8710    0.0010   -2.0870 H   0  0  0  0  0
    2.5990    1.6940   -1.6530 H   0  0  0  0  0
    3.3900    0.1330   -1.9900 H   0  0  0  0  0
   -4.8780   -2.3160    0.5070 H   0  0  0  0  0
   -7.3170   -1.6530    0.2530 H   0  0  0  0  0
   -7.6830    0.7790   -0.3750 H   0  0  0  0  0
  1  3  2  0  0  0
  1  5  1  0  0  0
  1  6  1  0  0  0
  2  8  3  0  0  0
  4 18  1  0  0  0
  4 21  1  0  0  0
  5  8  1  0  0  0
  5 22  1  0  0  0
  5 23  1  0  0  0
  6 10  1  0  0  0
  6 15  1  0  0  0
  7  9  1  0  0  0
  7 16  1  0  0  0
  9 17  2  0  0  0
 10 12  1  0  0  0
 10 24  1  0  0  0
 10 25  1  0  0  0
 11 16  2  0  0  0
 11 17  1  0  0  0
 12 13  1  0  0  0
 12 26  1  0  0  0
 12 27  1  0  0  0
 13 14  1  0  0  0
 13 16  1  0  0  0
 13 28  1  0  0  0
 14 15  1  0  0  0
 14 29  1  0  0  0
 14 30  1  0  0  0
 15 31  1  0  0  0
 15 32  1  0  0  0
 17 18  1  0  0  0
 18 19  2  0  0  0
 19 20  1  0  0  0
 19 33  1  0  0  0
 20 21  2  0  0  0
 20 34  1  0  0  0
 21 35  1  0  0  0
M  END
$$$$
