FON
  CCTOOLS-0919241036

 57 59  0  0  1  0  0  0  0  0999 V2000
    1.1320    2.2710    5.4200 N   0  0  0  0  0
    2.2320    1.5960    5.8530 C   0  0  0  0  0
    3.3410    2.3010    6.2430 N   0  0  0  0  0
    2.2510    0.2820    5.9110 N   0  0  0  0  0
    1.1840   -0.4430    5.5390 C   0  0  0  0  0
    1.2160   -1.6640    5.5980 O   0  0  0  0  0
    0.0250    0.2160    5.0810 C   0  0  0  0  0
   -1.1130   -0.5170    4.6910 N   0  0  0  0  0
   -2.1510    0.1620    3.9010 C   0  0  0  0  0
   -2.3870    1.5470    4.5230 C   0  0  0  0  0
   -1.0990    2.2530    4.5730 N   0  0  0  0  0
    0.0170    1.5810    5.0220 C   0  0  0  0  0
   -1.6820    0.3180    2.4530 C   0  0  0  0  0
   -1.4590   -1.0050    1.8660 N   0  0  0  0  0
   -0.1640   -1.3440   -2.0730 C   0  0  0  0  0
   -0.3870   -2.4920   -1.3080 C   0  0  0  0  0
   -0.8150   -2.3770   -0.0050 C   0  0  0  0  0
   -1.0260   -1.1180    0.5500 C   0  0  0  0  0
   -0.8110    0.0270   -0.2110 C   0  0  0  0  0
   -0.3770   -0.0810   -1.5120 C   0  0  0  0  0
    0.2950   -1.4640   -3.4700 C   0  0  0  0  0
    0.4800   -2.5630   -3.9560 O   0  0  0  0  0
    0.5090   -0.3560   -4.2060 N   0  0  0  0  0
    0.9660   -0.4750   -5.5930 C   0  0  0  0  0
    0.4440    0.7110   -6.4060 C   0  0  0  0  0
   -1.0850    0.7190   -6.3710 C   0  0  0  0  0
   -1.5990    1.8880   -7.1720 C   0  0  0  0  0
   -0.8210    2.6370   -7.7140 O   0  0  0  0  0
   -2.9200    2.0970   -7.2820 O   0  0  0  0  0
    2.4720   -0.4840   -5.6270 C   0  0  0  0  0
    3.0530   -1.0850   -6.4990 O   0  0  0  0  0
    3.1680    0.1760   -4.6890 O   0  0  0  0  0
   -1.2480   -1.8130    5.0350 C   0  0  0  0  0
   -2.1800   -2.4610    4.6060 O   0  0  0  0  0
    1.1410    3.2400    5.3860 H   0  0  0  0  0
    4.1290    1.8300    6.5570 H   0  0  0  0  0
    3.3400    3.2700    6.2000 H   0  0  0  0  0
   -3.0750   -0.4160    3.9290 H   0  0  0  0  0
   -2.7850    1.4340    5.5310 H   0  0  0  0  0
   -3.0920    2.1100    3.9100 H   0  0  0  0  0
   -1.0350    3.1800    4.2940 H   0  0  0  0  0
   -2.4440    0.8460    1.8790 H   0  0  0  0  0
   -0.7520    0.8870    2.4320 H   0  0  0  0  0
   -1.6130   -1.8020    2.3970 H   0  0  0  0  0
   -0.2220   -3.4690   -1.7380 H   0  0  0  0  0
   -0.9870   -3.2640    0.5860 H   0  0  0  0  0
   -0.9760    1.0020    0.2220 H   0  0  0  0  0
   -0.2060    0.8070   -2.1010 H   0  0  0  0  0
    0.3610    0.5200   -3.8180 H   0  0  0  0  0
    0.5870   -1.4030   -6.0220 H   0  0  0  0  0
    0.8220    1.6390   -5.9770 H   0  0  0  0  0
    0.7830    0.6220   -7.4380 H   0  0  0  0  0
   -1.4630   -0.2080   -6.8000 H   0  0  0  0  0
   -1.4250    0.8080   -5.3390 H   0  0  0  0  0
   -3.2500    2.8470   -7.7950 H   0  0  0  0  0
    4.1350    0.1700   -4.7110 H   0  0  0  0  0
   -0.5260   -2.2750    5.6920 H   0  0  0  0  0
  1  2  1  0  0  0
  1 12  1  0  0  0
  1 35  1  0  0  0
  2  3  1  0  0  0
  2  4  2  0  0  0
  3 36  1  0  0  0
  3 37  1  0  0  0
  4  5  1  0  0  0
  5  6  2  0  0  0
  5  7  1  0  0  0
  7  8  1  0  0  0
  7 12  2  0  0  0
  8  9  1  0  0  0
  8 33  1  0  0  0
  9 10  1  0  0  0
  9 13  1  0  0  0
  9 38  1  0  0  0
 10 11  1  0  0  0
 10 39  1  0  0  0
 10 40  1  0  0  0
 11 12  1  0  0  0
 11 41  1  0  0  0
 13 14  1  0  0  0
 13 42  1  0  0  0
 13 43  1  0  0  0
 14 18  1  0  0  0
 14 44  1  0  0  0
 15 16  2  0  0  0
 15 20  1  0  0  0
 15 21  1  0  0  0
 16 17  1  0  0  0
 16 45  1  0  0  0
 17 18  2  0  0  0
 17 46  1  0  0  0
 18 19  1  0  0  0
 19 20  2  0  0  0
 19 47  1  0  0  0
 20 48  1  0  0  0
 21 22  2  0  0  0
 21 23  1  0  0  0
 23 24  1  0  0  0
 23 49  1  0  0  0
 24 25  1  0  0  0
 24 30  1  0  0  0
 24 50  1  0  0  0
 25 26  1  0  0  0
 25 51  1  0  0  0
 25 52  1  0  0  0
 26 27  1  0  0  0
 26 53  1  0  0  0
 26 54  1  0  0  0
 27 28  2  0  0  0
 27 29  1  0  0  0
 29 55  1  0  0  0
 30 31  2  0  0  0
 30 32  1  0  0  0
 32 56  1  0  0  0
 33 34  2  0  0  0
 33 57  1  0  0  0
M  END
$$$$
