FOO
  CCTOOLS-0919241036

 34 34  0  0  0  0  0  0  0  0999 V2000
   -1.2900   -1.1390    4.7340 N   0  0  0  0  0
    0.0580   -1.1120    4.8340 C   0  0  0  0  0
    0.6070   -1.0750    6.2230 C   0  0  0  0  0
    0.9170   -1.1170    3.7470 C   0  0  0  0  0
    2.2640   -1.0890    3.9280 O   0  0  0  0  0
    0.3470   -1.1530    2.4870 C   0  0  0  0  0
   -1.0270   -1.1810    2.3310 C   0  0  0  0  0
   -1.7990   -1.1730    3.4820 C   0  0  0  0  0
   -1.6950   -1.2190    0.9990 C   0  0  0  0  0
   -1.9310    0.1110    0.5510 O   0  0  0  0  0
   -2.6510    0.3210   -0.8810 P   0  0  0  0  0
   -3.9930   -0.5740   -0.7720 O   0  0  0  0  0
   -2.8640    1.7510   -1.2820 O   0  0  0  0  0
   -1.7130   -0.5360   -1.8810 O   0  0  0  0  0
    2.8810    0.9560   -1.1730 N   0  0  0  0  0
    2.4940   -0.1080   -0.5500 C   0  0  0  0  0
    2.9620   -1.4310   -1.0740 C   0  0  0  0  0
    2.0800   -1.8830   -1.9760 O   0  0  0  0  0
    1.6260   -0.0580    0.6500 C   0  0  0  0  0
    3.9950   -1.9490   -0.7040 O   0  0  0  0  0
    1.2180   -1.1590    1.2980 C   0  0  0  0  0
   -2.8830   -1.1930    3.4340 H   0  0  0  0  0
    1.3430   -0.2680    6.3190 H   0  0  0  0  0
   -0.1900   -0.9100    6.9590 H   0  0  0  0  0
    1.0910   -2.0240    6.4830 H   0  0  0  0  0
    2.4760   -1.0130    4.8730 H   0  0  0  0  0
    1.5060   -2.1470    0.9480 H   0  0  0  0  0
   -1.0740   -1.7350    0.2530 H   0  0  0  0  0
   -2.6560   -1.7490    1.0510 H   0  0  0  0  0
   -4.6390   -0.5540   -1.5110 H   0  0  0  0  0
   -1.8870   -0.4970   -2.8460 H   0  0  0  0  0
    3.4760    0.7120   -1.9720 H   0  0  0  0  0
    1.3290    0.9360    0.9680 H   0  0  0  0  0
    2.3480   -2.7460   -2.3580 H   0  0  0  0  0
  1  2  1  0  0  0
  1  8  2  0  0  0
  2  3  1  0  0  0
  2  4  2  0  0  0
  3 23  1  0  0  0
  3 24  1  0  0  0
  3 25  1  0  0  0
  4  5  1  0  0  0
  4  6  1  0  0  0
  5 26  1  0  0  0
  6  7  2  0  0  0
  6 21  1  0  0  0
  7  8  1  0  0  0
  7  9  1  0  0  0
  8 22  1  0  0  0
  9 10  1  0  0  0
  9 28  1  0  0  0
  9 29  1  0  0  0
 10 11  1  0  0  0
 11 12  1  0  0  0
 11 13  2  0  0  0
 11 14  1  0  0  0
 12 30  1  0  0  0
 14 31  1  0  0  0
 15 16  2  0  0  0
 15 32  1  0  0  0
 16 17  1  0  0  0
 16 19  1  0  0  0
 17 18  1  0  0  0
 17 20  2  0  0  0
 18 34  1  0  0  0
 19 21  2  0  0  0
 19 33  1  0  0  0
 21 27  1  0  0  0
M  END
$$$$
