FP1
  CCTOOLS-0919241036

 20 20  0  0  0  0  0  0  0  0999 V2000
    3.5180   -0.3780    0.2890 O   0  0  0  0  0
    2.1540    0.0010    0.2890 N   0  0  0  0  0
    1.1670   -0.9220   -0.1020 C   0  0  0  0  0
   -0.1150   -0.5270   -0.2200 C   0  0  0  0  0
   -1.2110   -1.4940   -0.4260 C   0  0  0  0  0
   -2.4560   -1.1110   -0.0440 C   0  0  0  0  0
   -2.6490    0.2120    0.5470 C   0  0  0  0  0
   -1.6800    1.1400    0.4820 C   0  0  0  0  0
   -0.4860    0.8370   -0.1470 N   0  0  0  0  0
    0.3590    1.8890   -0.7190 C   0  0  0  0  0
    4.1220    0.3220    0.5720 H   0  0  0  0  0
    1.9000    0.8980    0.5590 H   0  0  0  0  0
    1.4370   -1.9470   -0.3070 H   0  0  0  0  0
   -1.0300   -2.4650   -0.8630 H   0  0  0  0  0
   -3.2950   -1.7780   -0.1750 H   0  0  0  0  0
   -3.5810    0.4460    1.0410 H   0  0  0  0  0
   -1.8300    2.1150    0.9220 H   0  0  0  0  0
    0.0080    2.1320   -1.7220 H   0  0  0  0  0
    0.3070    2.7780   -0.0900 H   0  0  0  0  0
    1.3900    1.5390   -0.7690 H   0  0  0  0  0
  1  2  1  0  0  0
  1 11  1  0  0  0
  2  3  1  0  0  0
  2 12  1  0  0  0
  3  4  2  0  0  0
  3 13  1  0  0  0
  4  5  1  0  0  0
  4  9  1  0  0  0
  5  6  2  0  0  0
  5 14  1  0  0  0
  6  7  1  0  0  0
  6 15  1  0  0  0
  7  8  2  0  0  0
  7 16  1  0  0  0
  8  9  1  0  0  0
  8 17  1  0  0  0
  9 10  1  0  0  0
 10 18  1  0  0  0
 10 19  1  0  0  0
 10 20  1  0  0  0
M  END
$$$$
