FSM
  CCTOOLS-0919241037

 57 58  0  0  1  0  0  0  0  0999 V2000
   -3.2580   -0.7950    0.1100 C   0  0  0  0  0
   -1.8450   -0.7540   -0.4780 C   0  0  0  0  0
   -0.9910    0.2230    0.3360 C   0  0  0  0  0
   -1.6640    1.5990    0.3300 C   0  0  0  0  0
   -3.0840    1.4670    0.8860 C   0  0  0  0  0
   -3.7830    2.8260    0.8270 C   0  0  0  0  0
   -1.4930   -2.9820   -1.4000 C   0  0  0  0  0
   -0.8810   -4.3570   -1.3380 C   0  0  0  0  0
   -1.2500   -2.0920   -0.4170 N   0  0  0  0  0
   -4.0770   -1.6630   -0.6780 O   0  0  0  0  0
    0.3090    0.3240   -0.2500 O   0  0  0  0  0
   -1.7190    2.0980   -1.0080 O   0  0  0  0  0
   -3.8140    0.5210    0.1030 O   0  0  0  0  0
   -5.0650    2.7300    1.4520 O   0  0  0  0  0
   -2.2030   -2.6750   -2.3340 O   0  0  0  0  0
    1.5640   -0.5310    1.5220 O   0  0  0  0  0
    1.3480    0.6090    0.6880 C   0  0  0  0  0
    2.6390    0.9400   -0.0650 C   0  0  0  0  0
    2.4050    2.0720   -0.9650 N   0  0  0  0  0
    3.0720   -0.2820   -0.8810 C   0  0  0  0  0
    4.3150   -0.0070   -1.5300 O   0  0  0  0  0
    3.2390   -1.4790    0.0600 C   0  0  0  0  0
    4.2810   -1.2060    1.0000 O   0  0  0  0  0
    1.9250   -1.7160    0.8090 C   0  0  0  0  0
    2.1010   -2.8720    1.7960 C   0  0  0  0  0
    0.8460   -3.1700    2.4100 O   0  0  0  0  0
    2.5110    3.3330   -0.5030 C   0  0  0  0  0
    2.8020    3.5320    0.6580 O   0  0  0  0  0
    2.2700    4.4980   -1.4290 C   0  0  0  0  0
   -3.2160   -1.1670    1.1340 H   0  0  0  0  0
   -1.8910   -0.4210   -1.5150 H   0  0  0  0  0
   -0.9020   -0.1360    1.3610 H   0  0  0  0  0
   -1.0910    2.2880    0.9510 H   0  0  0  0  0
   -3.0390    1.1250    1.9200 H   0  0  0  0  0
   -3.1800    3.5690    1.3500 H   0  0  0  0  0
   -3.9080    3.1260   -0.2130 H   0  0  0  0  0
   -1.1880   -4.9310   -2.2130 H   0  0  0  0  0
    0.2060   -4.2720   -1.3220 H   0  0  0  0  0
   -1.2180   -4.8650   -0.4340 H   0  0  0  0  0
   -0.6820   -2.3360    0.3300 H   0  0  0  0  0
   -4.9880   -1.7370   -0.3630 H   0  0  0  0  0
   -2.1340    2.9680   -1.0870 H   0  0  0  0  0
   -5.5660    3.5570    1.4520 H   0  0  0  0  0
    1.0590    1.4600    1.3050 H   0  0  0  0  0
    3.4220    1.1970    0.6480 H   0  0  0  0  0
    2.1720    1.9130   -1.8930 H   0  0  0  0  0
    2.3120   -0.5080   -1.6300 H   0  0  0  0  0
    4.6500   -0.7400   -2.0660 H   0  0  0  0  0
    3.4940   -2.3650   -0.5190 H   0  0  0  0  0
    4.4410   -1.9220    1.6280 H   0  0  0  0  0
    1.1390   -1.9640    0.0950 H   0  0  0  0  0
    2.8220   -2.5880    2.5620 H   0  0  0  0  0
    2.4010    5.4310   -0.8810 H   0  0  0  0  0
    1.2540    4.4460   -1.8200 H   0  0  0  0  0
    2.9800    4.4590   -2.2540 H   0  0  0  0  0
    2.4630   -3.7510    1.2640 H   0  0  0  0  0
    0.8820   -3.8940    3.0490 H   0  0  0  0  0
  1  2  1  0  0  0
  1 13  1  0  0  0
  1 10  1  0  0  0
  1 30  1  0  0  0
  2  3  1  0  0  0
  2  9  1  0  0  0
  2 31  1  0  0  0
  3 11  1  0  0  0
  3  4  1  0  0  0
  3 32  1  0  0  0
  4  5  1  0  0  0
  4 33  1  0  0  0
  5 13  1  0  0  0
  5  6  1  0  0  0
  5 34  1  0  0  0
  6 14  1  0  0  0
  6 35  1  0  0  0
  6 36  1  0  0  0
  7 15  2  0  0  0
  7  8  1  0  0  0
  7  9  1  0  0  0
  8 37  1  0  0  0
  8 38  1  0  0  0
  8 39  1  0  0  0
  9 40  1  0  0  0
 10 41  1  0  0  0
 12  4  1  0  0  0
 12 42  1  0  0  0
 14 43  1  0  0  0
 16 17  1  0  0  0
 17 11  1  0  0  0
 17 44  1  0  0  0
 18 20  1  0  0  0
 18 19  1  0  0  0
 18 17  1  0  0  0
 18 45  1  0  0  0
 19 46  1  0  0  0
 20 21  1  0  0  0
 20 22  1  0  0  0
 20 47  1  0  0  0
 21 48  1  0  0  0
 22 23  1  0  0  0
 22 24  1  0  0  0
 22 49  1  0  0  0
 23 50  1  0  0  0
 24 25  1  0  0  0
 24 16  1  0  0  0
 24 51  1  0  0  0
 25 26  1  0  0  0
 25 56  1  0  0  0
 25 52  1  0  0  0
 26 57  1  0  0  0
 27 29  1  0  0  0
 27 19  1  0  0  0
 27 28  2  0  0  0
 29 54  1  0  0  0
 29 53  1  0  0  0
 29 55  1  0  0  0
M  END
$$$$
