FT1
  CCTOOLS-0919241037

 26 27  0  0  0  0  0  0  0  0999 V2000
    1.4360   -0.7220   -0.1700 C   0  0  0  0  0
    1.9520   -0.4240    1.0910 C   0  0  0  0  0
    3.2030    0.1480    1.2080 C   0  0  0  0  0
    3.9510    0.4280    0.0580 C   0  0  0  0  0
    3.4260    0.1260   -1.2050 C   0  0  0  0  0
    2.1780   -0.4450   -1.3120 C   0  0  0  0  0
    0.2080   -1.2890   -0.2820 O   0  0  0  0  0
   -0.8790   -0.4780   -0.2060 C   0  0  0  0  0
   -2.1550   -1.0250   -0.1920 C   0  0  0  0  0
   -3.2600   -0.1970   -0.1130 C   0  0  0  0  0
   -3.0940    1.1750   -0.0480 C   0  0  0  0  0
   -1.8220    1.7220   -0.0630 C   0  0  0  0  0
   -0.7160    0.8980   -0.1350 C   0  0  0  0  0
    5.2820    1.0370    0.1750 C   0  0  0  0  0
    5.9280    1.2790   -0.8220 O   0  0  0  0  0
   -4.4820    2.2130    0.0500 CL  0  0  0  0  0
   -2.3640   -2.7460   -0.2740 CL  0  0  0  0  0
    1.2220   -0.6970    2.2060 O   0  0  0  0  0
    3.6030    0.3800    2.1840 H   0  0  0  0  0
    4.0000    0.3400   -2.0940 H   0  0  0  0  0
    1.7740   -0.6770   -2.2870 H   0  0  0  0  0
   -4.2530   -0.6210   -0.1020 H   0  0  0  0  0
   -1.6950    2.7930   -0.0120 H   0  0  0  0  0
    0.2760    1.3250   -0.1420 H   0  0  0  0  0
    5.6850    1.2700    1.1490 H   0  0  0  0  0
    1.3750   -1.5800    2.5690 H   0  0  0  0  0
  1  2  2  0  0  0
  1  6  1  0  0  0
  1  7  1  0  0  0
  2  3  1  0  0  0
  2 18  1  0  0  0
  3  4  2  0  0  0
  3 19  1  0  0  0
  4  5  1  0  0  0
  4 14  1  0  0  0
  5  6  2  0  0  0
  5 20  1  0  0  0
  6 21  1  0  0  0
  7  8  1  0  0  0
  8  9  2  0  0  0
  8 13  1  0  0  0
  9 10  1  0  0  0
  9 17  1  0  0  0
 10 11  2  0  0  0
 10 22  1  0  0  0
 11 12  1  0  0  0
 11 16  1  0  0  0
 12 13  2  0  0  0
 12 23  1  0  0  0
 13 24  1  0  0  0
 14 15  2  0  0  0
 14 25  1  0  0  0
 18 26  1  0  0  0
M  END
$$$$
