FT2
  CCTOOLS-0919241037

 27 28  0  0  0  0  0  0  0  0999 V2000
    0.9840   -0.6000   -0.2530 C   0  0  0  0  0
    1.5330   -0.2130    0.9660 C   0  0  0  0  0
    2.7640    0.4230    0.9970 C   0  0  0  0  0
    3.4430    0.6720   -0.1810 C   0  0  0  0  0
    2.8970    0.2880   -1.3920 C   0  0  0  0  0
    1.6700   -0.3470   -1.4300 C   0  0  0  0  0
   -0.2210   -1.2290   -0.2880 O   0  0  0  0  0
   -1.3420   -0.4650   -0.2090 C   0  0  0  0  0
   -2.5890   -1.0690   -0.1170 C   0  0  0  0  0
   -3.7290   -0.2890   -0.0370 C   0  0  0  0  0
   -3.6260    1.0900   -0.0480 C   0  0  0  0  0
   -2.3840    1.6930   -0.1390 C   0  0  0  0  0
   -1.2420    0.9180   -0.2130 C   0  0  0  0  0
    4.7820    1.3630   -0.1460 C   0  0  0  0  0
    6.0910    0.1320   -0.0030 CL  0  0  0  0  0
   -5.0580    2.0670    0.0520 CL  0  0  0  0  0
   -2.7180   -2.8000   -0.1040 CL  0  0  0  0  0
    0.8640   -0.4580    2.1240 O   0  0  0  0  0
    3.1930    0.7250    1.9410 H   0  0  0  0  0
    3.4310    0.4850   -2.3100 H   0  0  0  0  0
    1.2460   -0.6470   -2.3770 H   0  0  0  0  0
   -4.6990   -0.7580    0.0340 H   0  0  0  0  0
   -2.3060    2.7700   -0.1480 H   0  0  0  0  0
   -0.2730    1.3900   -0.2800 H   0  0  0  0  0
    4.9190    1.9360   -1.0630 H   0  0  0  0  0
    4.8200    2.0360    0.7110 H   0  0  0  0  0
    1.0730   -1.3120    2.5260 H   0  0  0  0  0
  1  2  2  0  0  0
  1  6  1  0  0  0
  1  7  1  0  0  0
  2  3  1  0  0  0
  2 18  1  0  0  0
  3  4  2  0  0  0
  3 19  1  0  0  0
  4  5  1  0  0  0
  4 14  1  0  0  0
  5  6  2  0  0  0
  5 20  1  0  0  0
  6 21  1  0  0  0
  7  8  1  0  0  0
  8  9  2  0  0  0
  8 13  1  0  0  0
  9 10  1  0  0  0
  9 17  1  0  0  0
 10 11  2  0  0  0
 10 22  1  0  0  0
 11 12  1  0  0  0
 11 16  1  0  0  0
 12 13  2  0  0  0
 12 23  1  0  0  0
 13 24  1  0  0  0
 14 15  1  0  0  0
 14 25  1  0  0  0
 14 26  1  0  0  0
 18 27  1  0  0  0
M  END
$$$$
