FTY
  CCTOOLS-1004241122

 31 31  0  0  1  0  0  0  0  0999 V2000
    1.5590    0.3060    3.7070 N   0  0  0  0  0
    0.1100    0.3460    3.9460 C   0  0  0  0  0
   -0.1720   -0.0110    5.3820 C   0  0  0  0  0
    0.5660   -0.7610    5.9740 O   0  0  0  0  0
   -1.2450    0.5030    6.0030 O   0  0  0  0  0
   -0.5850   -0.6560    3.0230 C   0  0  0  0  0
   -0.3030   -0.2980    1.5870 C   0  0  0  0  0
    0.8010   -0.8280    0.9470 C   0  0  0  0  0
   -1.1510    0.5560    0.9080 C   0  0  0  0  0
    1.0610   -0.5000   -0.3690 C   0  0  0  0  0
   -0.8890    0.8870   -0.4080 C   0  0  0  0  0
    0.2150    0.3580   -1.0470 C   0  0  0  0  0
    0.4990    0.7160   -2.4830 C   0  0  0  0  0
    0.0300    2.0090   -2.7420 F   0  0  0  0  0
    1.8780    0.6650   -2.7130 F   0  0  0  0  0
   -0.3440   -0.4660   -3.5830 P   0  0  0  0  0
    0.0160   -0.1760   -4.9890 O   0  0  0  0  0
    0.1120   -1.9650   -3.2100 O   0  0  0  0  0
   -1.9370   -0.3290   -3.3980 O   0  0  0  0  0
    1.6940    0.4490    2.7180 H   0  0  0  0  0
    1.8600   -0.6350    3.9080 H   0  0  0  0  0
   -0.2630    1.3490    3.7410 H   0  0  0  0  0
   -1.4260    0.2740    6.9250 H   0  0  0  0  0
   -0.2110   -1.6590    3.2280 H   0  0  0  0  0
   -1.6610   -0.6260    3.2000 H   0  0  0  0  0
    1.4620   -1.4990    1.4770 H   0  0  0  0  0
   -2.0140    0.9690    1.4070 H   0  0  0  0  0
    1.9240   -0.9130   -0.8690 H   0  0  0  0  0
   -1.5490    1.5580   -0.9370 H   0  0  0  0  0
   -0.3550   -2.5580   -3.8140 H   0  0  0  0  0
   -2.1300   -0.5310   -2.4720 H   0  0  0  0  0
  1  2  1  0  0  0
  1 20  1  0  0  0
  1 21  1  0  0  0
  2  3  1  0  0  0
  2  6  1  0  0  0
  2 22  1  0  0  0
  3  4  2  0  0  0
  3  5  1  0  0  0
  5 23  1  0  0  0
  6  7  1  0  0  0
  6 24  1  0  0  0
  6 25  1  0  0  0
  7  8  2  0  0  0
  7  9  1  0  0  0
  8 10  1  0  0  0
  8 26  1  0  0  0
  9 11  2  0  0  0
  9 27  1  0  0  0
 10 12  2  0  0  0
 10 28  1  0  0  0
 11 12  1  0  0  0
 11 29  1  0  0  0
 12 13  1  0  0  0
 13 14  1  0  0  0
 13 15  1  0  0  0
 13 16  1  0  0  0
 16 17  2  0  0  0
 16 18  1  0  0  0
 16 19  1  0  0  0
 18 30  1  0  0  0
 19 31  1  0  0  0
M  END
$$$$
