G05
  CCTOOLS-0919241038

 80 83  0  0  1  0  0  0  0  0999 V2000
   -3.6070   -4.0120    0.3000 C   0  0  0  0  0
   -3.3000   -5.3230    0.1150 O   0  0  0  0  0
   -4.1070   -6.0530   -0.8120 C   0  0  0  0  0
   -2.8650   -3.2440    1.1860 C   0  0  0  0  0
   -3.1780   -1.9110    1.3720 C   0  0  0  0  0
   -4.2290   -1.3430    0.6780 C   0  0  0  0  0
   -4.9710   -2.1070   -0.2050 C   0  0  0  0  0
   -4.6580   -3.4380   -0.3990 C   0  0  0  0  0
   -4.6260    0.3570    0.9180 S   0  0  0  0  0
   -5.9920    0.5050    0.5530 O   0  0  0  0  0
   -4.1220    0.7090    2.1990 O   0  0  0  0  0
   -3.7500    1.2260   -0.1860 N   0  0  0  0  0
   -4.3110    1.5070   -1.5090 C   0  0  0  0  0
   -4.9770    2.8840   -1.4990 C   0  0  0  0  0
   -5.4530    3.2310   -2.9110 C   0  0  0  0  0
   -6.1740    2.8650   -0.5470 C   0  0  0  0  0
   -2.4130    1.7140    0.1620 C   0  0  0  0  0
   -1.3620    0.7180   -0.3340 C   0  0  0  0  0
   -1.3880    0.6690   -1.7620 O   0  0  0  0  0
    0.0240    1.1630    0.1360 C   0  0  0  0  0
    1.0150    0.1500   -0.2350 N   0  0  0  0  0
    2.1610    0.0400    0.4650 C   0  0  0  0  0
    2.3740    0.7820    1.4040 O   0  0  0  0  0
    3.0720   -0.8920    0.1240 O   0  0  0  0  0
    4.2830   -0.9520    0.9220 C   0  0  0  0  0
    4.8240   -2.3940    0.9500 C   0  0  0  0  0
    6.2300   -2.3480    0.3030 C   0  0  0  0  0
    6.0610   -2.6200   -1.0910 O   0  0  0  0  0
    7.1770   -2.2790   -1.9130 C   0  0  0  0  0
    7.4440   -0.7760   -1.7650 C   0  0  0  0  0
    7.7000   -0.5050   -0.3860 O   0  0  0  0  0
    6.6770   -0.8880    0.5120 C   0  0  0  0  0
    5.3840   -0.0810    0.2790 C   0  0  0  0  0
    0.3840    2.4950   -0.5260 C   0  0  0  0  0
    2.8830    2.6360   -0.5770 C   0  0  0  0  0
    4.0830    3.0940   -0.0670 C   0  0  0  0  0
    4.0950    3.9100    1.0480 C   0  0  0  0  0
    2.9050    4.2690    1.6540 C   0  0  0  0  0
    1.7040    3.8100    1.1450 C   0  0  0  0  0
    1.6930    2.9940    0.0290 C   0  0  0  0  0
   -3.7570   -7.0840   -0.8650 H   0  0  0  0  0
   -5.1450   -6.0390   -0.4790 H   0  0  0  0  0
   -4.0350   -5.5930   -1.7970 H   0  0  0  0  0
   -2.0430   -3.6870    1.7290 H   0  0  0  0  0
   -2.6000   -1.3130    2.0610 H   0  0  0  0  0
   -5.7920   -1.6610   -0.7470 H   0  0  0  0  0
   -5.2350   -4.0330   -1.0920 H   0  0  0  0  0
   -3.5140    1.4940   -2.2520 H   0  0  0  0  0
   -5.0520    0.7470   -1.7580 H   0  0  0  0  0
   -4.2580    3.6320   -1.1640 H   0  0  0  0  0
   -6.1720    2.4830   -3.2460 H   0  0  0  0  0
   -5.9270    4.2130   -2.9040 H   0  0  0  0  0
   -4.6000    3.2450   -3.5890 H   0  0  0  0  0
   -6.8930    2.1170   -0.8820 H   0  0  0  0  0
   -5.8350    2.6180    0.4590 H   0  0  0  0  0
   -6.6480    3.8470   -0.5400 H   0  0  0  0  0
   -2.2460    2.6820   -0.3090 H   0  0  0  0  0
   -2.3330    1.8170    1.2440 H   0  0  0  0  0
   -1.5810   -0.2710    0.0670 H   0  0  0  0  0
   -1.2010    1.5170   -2.1880 H   0  0  0  0  0
    0.0180    1.2860    1.2190 H   0  0  0  0  0
    0.8450   -0.4420   -0.9840 H   0  0  0  0  0
    4.0790   -0.6100    1.9360 H   0  0  0  0  0
    4.8980   -2.7450    1.9800 H   0  0  0  0  0
    4.1690   -3.0500    0.3770 H   0  0  0  0  0
    6.9100   -3.0610    0.7690 H   0  0  0  0  0
    8.0550   -2.8410   -1.5920 H   0  0  0  0  0
    6.9520   -2.5120   -2.9540 H   0  0  0  0  0
    8.3110   -0.4950   -2.3630 H   0  0  0  0  0
    6.5700   -0.2130   -2.0950 H   0  0  0  0  0
    7.0170   -0.7510    1.5380 H   0  0  0  0  0
    5.1990    0.0460   -0.7880 H   0  0  0  0  0
    5.4440    0.8880    0.7750 H   0  0  0  0  0
    0.4770    2.3520   -1.6020 H   0  0  0  0  0
   -0.3990    3.2250   -0.3230 H   0  0  0  0  0
    2.8740    2.0020   -1.4510 H   0  0  0  0  0
    5.0130    2.8130   -0.5410 H   0  0  0  0  0
    5.0330    4.2670    1.4470 H   0  0  0  0  0
    2.9140    4.9060    2.5260 H   0  0  0  0  0
    0.7750    4.0900    1.6180 H   0  0  0  0  0
  1  2  1  0  0  0
  1  4  2  0  0  0
  1  8  1  0  0  0
  2  3  1  0  0  0
  3 41  1  0  0  0
  3 42  1  0  0  0
  3 43  1  0  0  0
  4  5  1  0  0  0
  4 44  1  0  0  0
  5  6  2  0  0  0
  5 45  1  0  0  0
  6  7  1  0  0  0
  6  9  1  0  0  0
  7  8  2  0  0  0
  7 46  1  0  0  0
  8 47  1  0  0  0
  9 10  2  0  0  0
  9 11  2  0  0  0
  9 12  1  0  0  0
 12 13  1  0  0  0
 12 17  1  0  0  0
 13 14  1  0  0  0
 13 48  1  0  0  0
 13 49  1  0  0  0
 14 15  1  0  0  0
 14 16  1  0  0  0
 14 50  1  0  0  0
 15 51  1  0  0  0
 15 52  1  0  0  0
 15 53  1  0  0  0
 16 54  1  0  0  0
 16 55  1  0  0  0
 16 56  1  0  0  0
 17 18  1  0  0  0
 17 57  1  0  0  0
 17 58  1  0  0  0
 18 19  1  0  0  0
 18 20  1  0  0  0
 18 59  1  0  0  0
 19 60  1  0  0  0
 20 21  1  0  0  0
 20 34  1  0  0  0
 20 61  1  0  0  0
 21 22  1  0  0  0
 21 62  1  0  0  0
 22 23  2  0  0  0
 22 24  1  0  0  0
 24 25  1  0  0  0
 25 26  1  0  0  0
 25 33  1  0  0  0
 25 63  1  0  0  0
 26 27  1  0  0  0
 26 64  1  0  0  0
 26 65  1  0  0  0
 27 28  1  0  0  0
 27 32  1  0  0  0
 27 66  1  0  0  0
 28 29  1  0  0  0
 29 30  1  0  0  0
 29 67  1  0  0  0
 29 68  1  0  0  0
 30 31  1  0  0  0
 30 69  1  0  0  0
 30 70  1  0  0  0
 31 32  1  0  0  0
 32 33  1  0  0  0
 32 71  1  0  0  0
 33 72  1  0  0  0
 33 73  1  0  0  0
 34 40  1  0  0  0
 34 74  1  0  0  0
 34 75  1  0  0  0
 35 36  2  0  0  0
 35 40  1  0  0  0
 35 76  1  0  0  0
 36 37  1  0  0  0
 36 77  1  0  0  0
 37 38  2  0  0  0
 37 78  1  0  0  0
 38 39  1  0  0  0
 38 79  1  0  0  0
 39 40  2  0  0  0
 39 80  1  0  0  0
M  END
$$$$
