G1P
  CCTOOLS-0919241038

 29 29  0  0  1  0  0  0  0  0999 V2000
    0.1720   -0.4680    0.9390 C   0  0  0  0  0
   -0.8390   -1.6120    0.8210 C   0  0  0  0  0
   -1.7820   -1.3310   -0.3530 C   0  0  0  0  0
   -2.4600    0.0250   -0.1350 C   0  0  0  0  0
   -1.3870    1.1050    0.0190 C   0  0  0  0  0
   -2.0550    2.4530    0.2970 C   0  0  0  0  0
    0.9640   -0.4090   -0.2490 O   0  0  0  0  0
   -0.1460   -2.8410    0.5940 O   0  0  0  0  0
   -2.7740   -2.3560   -0.4250 O   0  0  0  0  0
   -3.2870    0.3310   -1.2600 O   0  0  0  0  0
   -0.5260    0.7670    1.1090 O   0  0  0  0  0
   -1.0620    3.4800    0.3250 O   0  0  0  0  0
    2.4870    0.1130   -0.2620 P   0  0  0  0  0
    2.5500    1.4670    0.3320 O   0  0  0  0  0
    3.4070   -0.8920    0.5970 O   0  0  0  0  0
    3.0230    0.1670   -1.7790 O   0  0  0  0  0
    0.8190   -0.6420    1.7990 H   0  0  0  0  0
   -1.4170   -1.6840    1.7430 H   0  0  0  0  0
   -1.2110   -1.3080   -1.2810 H   0  0  0  0  0
   -3.0710   -0.0140    0.7670 H   0  0  0  0  0
   -0.8030    1.1710   -0.8990 H   0  0  0  0  0
   -2.7790    2.6690   -0.4900 H   0  0  0  0  0
   -2.5660    2.4140    1.2590 H   0  0  0  0  0
    0.4730   -3.0790    1.2970 H   0  0  0  0  0
   -2.4140   -3.2440   -0.5550 H   0  0  0  0  0
   -3.9880   -0.3160   -1.4200 H   0  0  0  0  0
   -1.4150    4.3640    0.4970 H   0  0  0  0  0
    3.4130   -1.8000    0.2640 H   0  0  0  0  0
    3.9370    0.4730   -1.8630 H   0  0  0  0  0
  1  2  1  0  0  0
  1  7  1  0  0  0
  1 11  1  0  0  0
  1 17  1  0  0  0
  2  3  1  0  0  0
  2  8  1  0  0  0
  2 18  1  0  0  0
  3  4  1  0  0  0
  3  9  1  0  0  0
  3 19  1  0  0  0
  4  5  1  0  0  0
  4 10  1  0  0  0
  4 20  1  0  0  0
  5  6  1  0  0  0
  5 11  1  0  0  0
  5 21  1  0  0  0
  6 12  1  0  0  0
  6 22  1  0  0  0
  6 23  1  0  0  0
  7 13  1  0  0  0
  8 24  1  0  0  0
  9 25  1  0  0  0
 10 26  1  0  0  0
 12 27  1  0  0  0
 13 14  2  0  0  0
 13 15  1  0  0  0
 13 16  1  0  0  0
 15 28  1  0  0  0
 16 29  1  0  0  0
M  END
$$$$
