G2F
  CCTOOLS-1004241123

 23 23  0  0  1  0  0  0  0  0999 V2000
   -0.5460    1.5650   -0.2480 C   0  0  0  0  0
   -1.5530    0.4540   -0.5560 C   0  0  0  0  0
   -1.1490   -0.8140    0.2040 C   0  0  0  0  0
    0.2800   -1.1990   -0.1900 C   0  0  0  0  0
    1.2160   -0.0230    0.1030 C   0  0  0  0  0
    2.6360   -0.3770   -0.3430 C   0  0  0  0  0
   -0.5810    1.8670    1.1480 O   0  0  0  0  0
   -2.0410   -1.8780   -0.1340 O   0  0  0  0  0
    0.6940   -2.3380    0.5660 O   0  0  0  0  0
    0.7660    1.1310   -0.6100 O   0  0  0  0  0
    3.5300    0.6710    0.0350 O   0  0  0  0  0
   -2.8300    0.8540   -0.1510 F   0  0  0  0  0
   -0.8040    2.4570   -0.8190 H   0  0  0  0  0
   -1.5560    0.2510   -1.6270 H   0  0  0  0  0
   -1.1940   -0.6260    1.2760 H   0  0  0  0  0
    0.3140   -1.4350   -1.2540 H   0  0  0  0  0
    1.2130    0.1860    1.1730 H   0  0  0  0  0
    2.9450   -1.3080    0.1330 H   0  0  0  0  0
    2.6570   -0.4990   -1.4260 H   0  0  0  0  0
    0.0330    2.5650    1.4150 H   0  0  0  0  0
   -2.9660   -1.6990    0.0820 H   0  0  0  0  0
    0.1410   -3.1210    0.4330 H   0  0  0  0  0
    4.4500    0.5140   -0.2170 H   0  0  0  0  0
  1  2  1  0  0  0
  1  7  1  0  0  0
  1 10  1  0  0  0
  1 13  1  0  0  0
  2  3  1  0  0  0
  2 12  1  0  0  0
  2 14  1  0  0  0
  3  4  1  0  0  0
  3  8  1  0  0  0
  3 15  1  0  0  0
  4  5  1  0  0  0
  4  9  1  0  0  0
  4 16  1  0  0  0
  5  6  1  0  0  0
  5 10  1  0  0  0
  5 17  1  0  0  0
  6 11  1  0  0  0
  6 18  1  0  0  0
  6 19  1  0  0  0
  7 20  1  0  0  0
  8 21  1  0  0  0
  9 22  1  0  0  0
 11 23  1  0  0  0
M  END
$$$$
