G3A
  CCTOOLS-0919241038

 77 82  0  0  1  0  0  0  0  0999 V2000
    4.5560    4.5670    8.7630 O   0  0  0  0  0
    3.8500    4.5120    7.7640 C   0  0  0  0  0
    3.7920    3.4350    6.8690 N   0  0  0  0  0
    2.9750    3.3750    5.7150 C   0  0  0  0  0
    3.0790    2.2210    4.9830 N   0  0  0  0  0
    2.1690    4.3540    5.3650 N   0  0  0  0  0
    2.9610    5.5640    7.3560 C   0  0  0  0  0
    2.2110    5.4030    6.2160 C   0  0  0  0  0
    2.7310    6.7670    7.9550 N   0  0  0  0  0
    1.8360    7.3430    7.1780 C   0  0  0  0  0
    1.4870    6.5550    6.1070 N   0  0  0  0  0
    0.5250    6.9010    5.0620 C   0  0  0  0  0
   -0.1480    5.7100    4.6080 O   0  0  0  0  0
    1.1510    7.5300    3.8270 C   0  0  0  0  0
    1.3420    8.9220    3.9850 O   0  0  0  0  0
    0.1260    7.1890    2.7630 C   0  0  0  0  0
   -0.9890    8.0730    2.8740 O   0  0  0  0  0
   -0.3140    5.7870    3.1740 C   0  0  0  0  0
    0.5240    4.6900    2.5330 C   0  0  0  0  0
    0.0530    3.4300    2.9780 O   0  0  0  0  0
    0.2020    2.1570    1.9920 P   0  0  0  0  0
   -0.4890    2.6490    0.6140 O   0  0  0  0  0
   -0.3180    0.8550    2.5280 O   0  0  0  0  0
    1.7810    2.1910    1.6520 O   0  0  0  0  0
    2.6910    1.3280    0.6360 P   0  0  0  0  0
    2.1360    1.7550   -0.8220 O   0  0  0  0  0
    2.6920   -0.1500    0.8990 O   0  0  0  0  0
    4.1380    2.0400    0.7100 O   0  0  0  0  0
    5.4880    1.7850   -0.1410 P   0  0  0  0  0
    5.3790    1.9850   -1.6250 O   0  0  0  0  0
    5.9490    0.3010    0.3070 O   0  0  0  0  0
    6.5410    2.7490    0.6220 O   0  0  0  0  0
    6.6890    2.6100    2.0240 C   0  0  0  0  0
    7.7220    3.6090    2.5140 C   0  0  0  0  0
    7.9530    3.5550    4.0140 C   0  0  0  0  0
    8.8280    2.5090    4.3790 O   0  0  0  0  0
    8.5080    4.9360    4.3050 C   0  0  0  0  0
    9.9130    4.9900    4.0640 O   0  0  0  0  0
    7.2660    4.9470    2.2510 O   0  0  0  0  0
    7.7870    5.8150    3.2810 C   0  0  0  0  0
    6.6950    6.6050    3.8510 N   0  0  0  0  0
    6.7660    7.8890    4.3150 C   0  0  0  0  0
    7.8440    8.6880    4.3480 N   0  0  0  0  0
    7.5250    9.8880    4.8790 C   0  0  0  0  0
    6.3280   10.3230    5.3400 N   0  0  0  0  0
    5.3990    6.1910    4.0180 C   0  0  0  0  0
    4.6430    7.1240    4.5570 N   0  0  0  0  0
    5.4850    8.1910    4.7480 C   0  0  0  0  0
    5.2830    9.4620    5.2760 C   0  0  0  0  0
    4.0150    9.8540    5.7390 N   0  0  0  0  0
    4.3840    2.6330    7.0640 H   0  0  0  0  0
    3.0130    2.2850    3.9930 H   0  0  0  0  0
    3.2160    1.3650    5.4680 H   0  0  0  0  0
    1.4040    8.3230    7.3340 H   0  0  0  0  0
   -0.2040    7.5590    5.5470 H   0  0  0  0  0
    2.1140    7.0640    3.5920 H   0  0  0  0  0
    0.4930    9.2990    4.2750 H   0  0  0  0  0
    0.5090    7.2620    1.7420 H   0  0  0  0  0
   -1.6840    7.5810    3.3360 H   0  0  0  0  0
   -1.3720    5.6100    2.9540 H   0  0  0  0  0
    1.5750    4.7940    2.8190 H   0  0  0  0  0
    0.4430    4.7320    1.4430 H   0  0  0  0  0
   -1.4680    2.6350    0.5430 H   0  0  0  0  0
    2.4660    1.2790   -1.6140 H   0  0  0  0  0
    6.7260   -0.1060   -0.1310 H   0  0  0  0  0
    5.7220    2.7920    2.5010 H   0  0  0  0  0
    7.0100    1.5870    2.2440 H   0  0  0  0  0
    8.6550    3.4490    1.9610 H   0  0  0  0  0
    7.0000    3.4240    4.5400 H   0  0  0  0  0
    8.8330    2.4820    5.3480 H   0  0  0  0  0
    8.3510    5.2430    5.3430 H   0  0  0  0  0
   10.0390    5.0520    3.1010 H   0  0  0  0  0
    8.4540    6.5450    2.8100 H   0  0  0  0  0
    8.3390   10.6030    4.9440 H   0  0  0  0  0
    5.0680    5.2020    3.7280 H   0  0  0  0  0
    3.6510    9.4490    6.5800 H   0  0  0  0  0
    3.4510   10.4620    5.1750 H   0  0  0  0  0
  1  2  2  0  0  0
  2  3  1  0  0  0
  2  7  1  0  0  0
  3  4  1  0  0  0
  3 51  1  0  0  0
  4  5  1  0  0  0
  4  6  2  0  0  0
  5 52  1  0  0  0
  5 53  1  0  0  0
  6  8  1  0  0  0
  7  8  2  0  0  0
  7  9  1  0  0  0
  8 11  1  0  0  0
  9 10  2  0  0  0
 10 11  1  0  0  0
 10 54  1  0  0  0
 11 12  1  0  0  0
 12 14  1  0  0  0
 12 13  1  0  0  0
 12 55  1  0  0  0
 13 18  1  0  0  0
 14 15  1  0  0  0
 14 16  1  0  0  0
 14 56  1  0  0  0
 15 57  1  0  0  0
 16 17  1  0  0  0
 16 18  1  0  0  0
 16 58  1  0  0  0
 17 59  1  0  0  0
 18 19  1  0  0  0
 18 60  1  0  0  0
 19 20  1  0  0  0
 19 61  1  0  0  0
 19 62  1  0  0  0
 20 21  1  0  0  0
 21 23  2  0  0  0
 21 24  1  0  0  0
 21 22  1  0  0  0
 22 63  1  0  0  0
 24 25  1  0  0  0
 25 28  1  0  0  0
 25 27  2  0  0  0
 25 26  1  0  0  0
 26 64  1  0  0  0
 28 29  1  0  0  0
 29 30  2  0  0  0
 29 32  1  0  0  0
 29 31  1  0  0  0
 31 65  1  0  0  0
 32 33  1  0  0  0
 33 34  1  0  0  0
 33 66  1  0  0  0
 33 67  1  0  0  0
 34 39  1  0  0  0
 34 35  1  0  0  0
 34 68  1  0  0  0
 35 37  1  0  0  0
 35 36  1  0  0  0
 35 69  1  0  0  0
 36 70  1  0  0  0
 37 40  1  0  0  0
 37 38  1  0  0  0
 37 71  1  0  0  0
 38 72  1  0  0  0
 39 40  1  0  0  0
 40 41  1  0  0  0
 40 73  1  0  0  0
 41 42  1  0  0  0
 41 46  1  0  0  0
 42 48  2  0  0  0
 42 43  1  0  0  0
 43 44  2  0  0  0
 44 45  1  0  0  0
 44 74  1  0  0  0
 45 49  2  0  0  0
 46 47  2  0  0  0
 46 75  1  0  0  0
 47 48  1  0  0  0
 48 49  1  0  0  0
 49 50  1  0  0  0
 50 76  1  0  0  0
 50 77  1  0  0  0
M  END
$$$$
