G3H
  CCTOOLS-1004241123

 17 16  0  0  1  0  0  0  0  0999 V2000
   -4.1390   -0.2990   -0.4370 O   0  0  0  0  0
   -3.2120   -0.7720    0.1760 C   0  0  0  0  0
   -2.0420    0.0970    0.5620 C   0  0  0  0  0
   -2.2630    1.4290    0.0930 O   0  0  0  0  0
   -0.7640   -0.4600   -0.0680 C   0  0  0  0  0
    0.3610    0.2930    0.3910 O   0  0  0  0  0
    1.9500    0.0010   -1.5480 O   0  0  0  0  0
    2.8580    1.1010    0.5340 O   0  0  0  0  0
    2.3100   -1.4690    0.4720 O   0  0  0  0  0
    1.8720   -0.0180   -0.0700 P   0  0  0  0  0
   -3.2230   -1.8160    0.4520 H   0  0  0  0  0
   -1.9380    0.1060    1.6470 H   0  0  0  0  0
   -2.3640    1.4960   -0.8660 H   0  0  0  0  0
   -0.6430   -1.5050    0.2190 H   0  0  0  0  0
   -0.8310   -0.3870   -1.1530 H   0  0  0  0  0
    3.7870    0.9770    0.2960 H   0  0  0  0  0
    2.2830   -1.5540    1.4340 H   0  0  0  0  0
  1  2  2  0  0  0
  2  3  1  0  0  0
  2 11  1  0  0  0
  3  4  1  0  0  0
  3  5  1  0  0  0
  3 12  1  0  0  0
  4 13  1  0  0  0
  5  6  1  0  0  0
  5 14  1  0  0  0
  5 15  1  0  0  0
  6 10  1  0  0  0
  7 10  2  0  0  0
  8 10  1  0  0  0
  8 16  1  0  0  0
  9 10  1  0  0  0
  9 17  1  0  0  0
M  END
$$$$
