G3P
  CCTOOLS-1004241123

 19 18  0  0  1  0  0  0  0  0999 V2000
    4.3790    0.3020   -0.3140 O   0  0  0  0  0
    3.1560    0.7050    0.3050 C   0  0  0  0  0
    1.9970   -0.1050   -0.2790 C   0  0  0  0  0
    2.1590   -1.4830    0.0640 O   0  0  0  0  0
    0.6750    0.4100    0.2910 C   0  0  0  0  0
   -0.4130   -0.2670   -0.3410 O   0  0  0  0  0
   -2.8980   -1.0030   -0.7860 O   0  0  0  0  0
   -2.1660   -0.1440    1.4720 O   0  0  0  0  0
   -2.3260    1.5350   -0.4060 O   0  0  0  0  0
   -1.9550    0.0270    0.0160 P   0  0  0  0  0
    5.1580    0.7760    0.0090 H   0  0  0  0  0
    3.2170    0.5290    1.3790 H   0  0  0  0  0
    2.9870    1.7660    0.1200 H   0  0  0  0  0
    1.9910    0.0000   -1.3640 H   0  0  0  0  0
    2.1740   -1.6520    1.0160 H   0  0  0  0  0
    0.6450    0.2240    1.3650 H   0  0  0  0  0
    0.5930    1.4820    0.1060 H   0  0  0  0  0
   -2.2120    1.7190   -1.3490 H   0  0  0  0  0
   -3.8420   -0.8840   -0.6190 H   0  0  0  0  0
  1  2  1  0  0  0
  1 11  1  0  0  0
  2  3  1  0  0  0
  2 12  1  0  0  0
  2 13  1  0  0  0
  3  4  1  0  0  0
  3  5  1  0  0  0
  3 14  1  0  0  0
  4 15  1  0  0  0
  5  6  1  0  0  0
  5 16  1  0  0  0
  5 17  1  0  0  0
  6 10  1  0  0  0
  7 10  1  0  0  0
  7 19  1  0  0  0
  8 10  2  0  0  0
  9 10  1  0  0  0
  9 18  1  0  0  0
M  END
$$$$
