G52
  CCTOOLS-0919241038

 82 86  0  0  1  0  0  0  0  0999 V2000
    7.2890   -0.8680    1.6760 C   0  0  0  0  0
    7.5090    0.2950    0.9520 C   0  0  0  0  0
    6.4470    1.1150    0.6240 C   0  0  0  0  0
    5.1650    0.7770    1.0170 C   0  0  0  0  0
    4.9430   -0.3810    1.7390 C   0  0  0  0  0
    6.0020   -1.2040    2.0690 C   0  0  0  0  0
    3.8120    1.8260    0.5990 S   0  0  0  0  0
    2.8510    1.6750    1.6350 O   0  0  0  0  0
    4.3730    3.0800    0.2360 O   0  0  0  0  0
    3.1200    1.2090   -0.7740 N   0  0  0  0  0
    3.4930    1.7420   -2.0860 C   0  0  0  0  0
    4.2160    0.6590   -2.8900 C   0  0  0  0  0
    4.5310    1.1880   -4.2900 C   0  0  0  0  0
    5.5180    0.2820   -2.1810 C   0  0  0  0  0
    2.1340    0.1290   -0.6750 C   0  0  0  0  0
    0.7250    0.7250   -0.6710 C   0  0  0  0  0
    0.4700    1.3550   -1.9280 O   0  0  0  0  0
   -0.2990   -0.3890   -0.4430 C   0  0  0  0  0
   -1.6370    0.1940   -0.3210 N   0  0  0  0  0
   -2.5990   -0.4610    0.3590 C   0  0  0  0  0
   -2.3560   -1.5370    0.8700 O   0  0  0  0  0
   -3.8280    0.0750    0.4720 O   0  0  0  0  0
   -4.8140   -0.6870    1.2180 C   0  0  0  0  0
   -4.8020   -0.2750    2.7060 C   0  0  0  0  0
   -5.8320    0.7310    2.8190 O   0  0  0  0  0
   -6.9230    0.2570    2.0030 C   0  0  0  0  0
   -7.6790    1.3860    1.5300 O   0  0  0  0  0
   -6.8620    2.0330    0.5320 C   0  0  0  0  0
   -6.1720    0.8710   -0.2340 C   0  0  0  0  0
   -6.2400   -0.3390    0.7390 C   0  0  0  0  0
   -0.2720   -1.3570   -1.6280 C   0  0  0  0  0
   -2.5170   -2.4580   -1.7270 C   0  0  0  0  0
   -3.3580   -3.5260   -1.4760 C   0  0  0  0  0
   -2.8710   -4.6560   -0.8460 C   0  0  0  0  0
   -1.5430   -4.7170   -0.4680 C   0  0  0  0  0
   -0.7020   -3.6490   -0.7190 C   0  0  0  0  0
   -1.1890   -2.5190   -1.3490 C   0  0  0  0  0
    8.3320   -1.6790    1.9950 O   0  0  0  0  0
    9.6290   -1.2690    1.5580 C   0  0  0  0  0
   -7.7280    2.7130   -0.3870 O   0  0  0  0  0
   -7.6500    2.1040   -1.6850 C   0  0  0  0  0
   -7.1470    0.6320   -1.4140 C   0  0  0  0  0
    8.5100    0.5600    0.6460 H   0  0  0  0  0
    6.6170    2.0200    0.0610 H   0  0  0  0  0
    3.9400   -0.6420    2.0440 H   0  0  0  0  0
    5.8280   -2.1090    2.6320 H   0  0  0  0  0
    2.5960    2.0530   -2.6200 H   0  0  0  0  0
    4.1540    2.5990   -1.9550 H   0  0  0  0  0
    3.5780   -0.2210   -2.9690 H   0  0  0  0  0
    5.1700    2.0680   -4.2100 H   0  0  0  0  0
    5.0460    0.4170   -4.8630 H   0  0  0  0  0
    3.6030    1.4570   -4.7950 H   0  0  0  0  0
    6.0960    1.1840   -1.9790 H   0  0  0  0  0
    5.2890   -0.2210   -1.2420 H   0  0  0  0  0
    6.0980   -0.3860   -2.8190 H   0  0  0  0  0
    2.2430   -0.5410   -1.5280 H   0  0  0  0  0
    2.2960   -0.4270    0.2480 H   0  0  0  0  0
    0.6440    1.4620    0.1280 H   0  0  0  0  0
    0.5260    0.7580   -2.6860 H   0  0  0  0  0
   -0.0520   -0.9280    0.4720 H   0  0  0  0  0
   -1.8310    1.0530   -0.7290 H   0  0  0  0  0
   -4.6250   -1.7550    1.1170 H   0  0  0  0  0
   -5.0360   -1.1310    3.3390 H   0  0  0  0  0
   -3.8320    0.1420    2.9770 H   0  0  0  0  0
   -7.5450   -0.4710    2.5240 H   0  0  0  0  0
   -6.1360    2.7120    0.9800 H   0  0  0  0  0
   -5.1550    1.1070   -0.5480 H   0  0  0  0  0
   -6.7640   -1.1960    0.3140 H   0  0  0  0  0
   -0.6040   -0.8400   -2.5280 H   0  0  0  0  0
    0.7440   -1.7240   -1.7740 H   0  0  0  0  0
   -2.8970   -1.5770   -2.2230 H   0  0  0  0  0
   -4.3960   -3.4780   -1.7720 H   0  0  0  0  0
   -3.5280   -5.4900   -0.6490 H   0  0  0  0  0
   -1.1620   -5.6000    0.0250 H   0  0  0  0  0
    0.3360   -3.6970   -0.4230 H   0  0  0  0  0
   10.3690   -2.0030    1.8770 H   0  0  0  0  0
    9.6390   -1.1930    0.4700 H   0  0  0  0  0
    9.8700   -0.2990    1.9920 H   0  0  0  0  0
   -8.6300    2.1020   -2.1610 H   0  0  0  0  0
   -6.9280    2.6330   -2.3080 H   0  0  0  0  0
   -6.6260    0.2200   -2.2780 H   0  0  0  0  0
   -7.9750   -0.0120   -1.1150 H   0  0  0  0  0
  1  6  1  0  0  0
  2  1  2  0  0  0
  2  3  1  0  0  0
  2 43  1  0  0  0
  3  4  2  0  0  0
  3 44  1  0  0  0
  4  5  1  0  0  0
  4  7  1  0  0  0
  5 45  1  0  0  0
  6  5  2  0  0  0
  6 46  1  0  0  0
  7  9  2  0  0  0
  7 10  1  0  0  0
  8  7  2  0  0  0
 10 15  1  0  0  0
 10 11  1  0  0  0
 11 12  1  0  0  0
 11 47  1  0  0  0
 11 48  1  0  0  0
 12 14  1  0  0  0
 12 49  1  0  0  0
 13 12  1  0  0  0
 13 50  1  0  0  0
 13 51  1  0  0  0
 13 52  1  0  0  0
 14 53  1  0  0  0
 14 54  1  0  0  0
 14 55  1  0  0  0
 15 16  1  0  0  0
 15 56  1  0  0  0
 15 57  1  0  0  0
 16 17  1  0  0  0
 16 58  1  0  0  0
 17 59  1  0  0  0
 18 16  1  0  0  0
 18 19  1  0  0  0
 18 60  1  0  0  0
 19 20  1  0  0  0
 19 61  1  0  0  0
 20 22  1  0  0  0
 21 20  2  0  0  0
 22 23  1  0  0  0
 23 24  1  0  0  0
 23 62  1  0  0  0
 24 63  1  0  0  0
 24 64  1  0  0  0
 25 24  1  0  0  0
 26 25  1  0  0  0
 26 65  1  0  0  0
 27 26  1  0  0  0
 28 27  1  0  0  0
 28 66  1  0  0  0
 29 28  1  0  0  0
 29 30  1  0  0  0
 29 67  1  0  0  0
 30 23  1  0  0  0
 30 26  1  0  0  0
 30 68  1  0  0  0
 31 18  1  0  0  0
 31 69  1  0  0  0
 31 70  1  0  0  0
 32 37  1  0  0  0
 32 71  1  0  0  0
 33 32  2  0  0  0
 33 72  1  0  0  0
 34 33  1  0  0  0
 34 35  2  0  0  0
 34 73  1  0  0  0
 35 36  1  0  0  0
 35 74  1  0  0  0
 36 37  2  0  0  0
 36 75  1  0  0  0
 37 31  1  0  0  0
 38  1  1  0  0  0
 38 39  1  0  0  0
 39 76  1  0  0  0
 39 77  1  0  0  0
 39 78  1  0  0  0
 40 28  1  0  0  0
 41 40  1  0  0  0
 41 79  1  0  0  0
 41 80  1  0  0  0
 42 29  1  0  0  0
 42 41  1  0  0  0
 42 81  1  0  0  0
 42 82  1  0  0  0
M  END
$$$$
