G55
  CCTOOLS-0919241038

 76 78  0  0  1  0  0  0  0  0999 V2000
    3.2460   -4.0360    0.1340 C   0  0  0  0  0
    2.9810   -5.3010    0.5530 O   0  0  0  0  0
    3.9260   -5.9020    1.4400 C   0  0  0  0  0
    2.3710   -3.3920   -0.7290 C   0  0  0  0  0
    2.6420   -2.1050   -1.1530 C   0  0  0  0  0
    3.7850   -1.4600   -0.7190 C   0  0  0  0  0
    4.6590   -2.1000    0.1410 C   0  0  0  0  0
    4.3900   -3.3840    0.5720 C   0  0  0  0  0
    4.1290    0.1810   -1.2620 S   0  0  0  0  0
    5.5330    0.3590   -1.1370 O   0  0  0  0  0
    3.4290    0.3530   -2.4870 O   0  0  0  0  0
    3.4280    1.2140   -0.1740 N   0  0  0  0  0
    4.1860    1.6740    0.9920 C   0  0  0  0  0
    4.8650    3.0060    0.6660 C   0  0  0  0  0
    3.8000    4.0790    0.4350 C   0  0  0  0  0
    5.7620    3.4210    1.8340 C   0  0  0  0  0
    2.0500    1.6680   -0.3780 C   0  0  0  0  0
    1.0940    0.7580    0.3950 C   0  0  0  0  0
    1.3330    0.8950    1.7970 O   0  0  0  0  0
   -0.3510    1.1540    0.0830 C   0  0  0  0  0
   -1.2660    0.2090    0.7270 N   0  0  0  0  0
   -2.5040    0.0220    0.2270 C   0  0  0  0  0
   -2.8600    0.6380   -0.7580 O   0  0  0  0  0
   -3.3450   -0.8460    0.8190 O   0  0  0  0  0
   -4.6620   -0.9970    0.2260 C   0  0  0  0  0
   -4.6170   -2.0630   -0.7800 C   0  0  0  0  0
   -5.9030   -2.2680   -1.4000 O   0  0  0  0  0
   -6.7650   -3.0440   -0.6180 C   0  0  0  0  0
   -7.6560   -2.2490    0.1940 O   0  0  0  0  0
   -7.0670   -1.0770    0.8040 C   0  0  0  0  0
   -5.6830   -1.3160    1.3380 C   0  0  0  0  0
   -0.6180    2.5640    0.6120 C   0  0  0  0  0
   -3.0820    2.7400    1.0180 C   0  0  0  0  0
   -4.3490    3.1410    0.6380 C   0  0  0  0  0
   -4.5340    3.8060   -0.5600 C   0  0  0  0  0
   -3.4510    4.0690   -1.3780 C   0  0  0  0  0
   -2.1840    3.6670   -0.9990 C   0  0  0  0  0
   -2.0000    3.0030    0.1990 C   0  0  0  0  0
    4.0050   -5.3040    2.3470 H   0  0  0  0  0
    3.5950   -6.9090    1.6960 H   0  0  0  0  0
    4.9000   -5.9530    0.9530 H   0  0  0  0  0
    1.4780   -3.8960   -1.0680 H   0  0  0  0  0
    1.9610   -1.6040   -1.8240 H   0  0  0  0  0
    5.5510   -1.5930    0.4780 H   0  0  0  0  0
    5.0700   -3.8820    1.2470 H   0  0  0  0  0
    3.5090    1.8090    1.8360 H   0  0  0  0  0
    4.9430    0.9330    1.2490 H   0  0  0  0  0
    5.4700    2.8940   -0.2340 H   0  0  0  0  0
    3.2460    3.8510   -0.4760 H   0  0  0  0  0
    3.1140    4.0980    1.2810 H   0  0  0  0  0
    4.2800    5.0520    0.3340 H   0  0  0  0  0
    6.5210    2.6560    1.9990 H   0  0  0  0  0
    6.2460    4.3690    1.6020 H   0  0  0  0  0
    5.1570    3.5330    2.7340 H   0  0  0  0  0
    1.9480    2.6920   -0.0180 H   0  0  0  0  0
    1.8090    1.6310   -1.4400 H   0  0  0  0  0
    1.2580   -0.2780    0.0970 H   0  0  0  0  0
    1.2050    1.7930    2.1320 H   0  0  0  0  0
   -0.5080    1.1350   -0.9950 H   0  0  0  0  0
   -0.9820   -0.2830    1.5130 H   0  0  0  0  0
   -4.9440   -0.0620   -0.2580 H   0  0  0  0  0
   -3.8910   -1.7970   -1.5480 H   0  0  0  0  0
   -4.3020   -2.9900   -0.3000 H   0  0  0  0  0
   -7.3600   -3.6780   -1.2750 H   0  0  0  0  0
   -6.1690   -3.6810    0.0360 H   0  0  0  0  0
   -7.0230   -0.2800    0.0610 H   0  0  0  0  0
   -7.7070   -0.7510    1.6250 H   0  0  0  0  0
   -5.5820   -2.3590    1.6380 H   0  0  0  0  0
   -5.5040   -0.6680    2.1960 H   0  0  0  0  0
   -0.5480    2.5640    1.7000 H   0  0  0  0  0
    0.1200    3.2530    0.2010 H   0  0  0  0  0
   -2.9370    2.2250    1.9560 H   0  0  0  0  0
   -5.1950    2.9360    1.2780 H   0  0  0  0  0
   -5.5240    4.1190   -0.8570 H   0  0  0  0  0
   -3.5960    4.5870   -2.3150 H   0  0  0  0  0
   -1.3390    3.8720   -1.6390 H   0  0  0  0  0
  1  2  1  0  0  0
  1  4  2  0  0  0
  1  8  1  0  0  0
  2  3  1  0  0  0
  3 39  1  0  0  0
  3 40  1  0  0  0
  3 41  1  0  0  0
  4  5  1  0  0  0
  4 42  1  0  0  0
  5  6  2  0  0  0
  5 43  1  0  0  0
  6  7  1  0  0  0
  6  9  1  0  0  0
  7  8  2  0  0  0
  7 44  1  0  0  0
  8 45  1  0  0  0
  9 10  2  0  0  0
  9 11  2  0  0  0
  9 12  1  0  0  0
 12 13  1  0  0  0
 12 17  1  0  0  0
 13 14  1  0  0  0
 13 46  1  0  0  0
 13 47  1  0  0  0
 14 15  1  0  0  0
 14 16  1  0  0  0
 14 48  1  0  0  0
 15 49  1  0  0  0
 15 50  1  0  0  0
 15 51  1  0  0  0
 16 52  1  0  0  0
 16 53  1  0  0  0
 16 54  1  0  0  0
 17 18  1  0  0  0
 17 55  1  0  0  0
 17 56  1  0  0  0
 18 19  1  0  0  0
 18 20  1  0  0  0
 18 57  1  0  0  0
 19 58  1  0  0  0
 20 21  1  0  0  0
 20 32  1  0  0  0
 20 59  1  0  0  0
 21 22  1  0  0  0
 21 60  1  0  0  0
 22 23  2  0  0  0
 22 24  1  0  0  0
 24 25  1  0  0  0
 25 26  1  0  0  0
 25 31  1  0  0  0
 25 61  1  0  0  0
 26 27  1  0  0  0
 26 62  1  0  0  0
 26 63  1  0  0  0
 27 28  1  0  0  0
 28 29  1  0  0  0
 28 64  1  0  0  0
 28 65  1  0  0  0
 29 30  1  0  0  0
 30 31  1  0  0  0
 30 66  1  0  0  0
 30 67  1  0  0  0
 31 68  1  0  0  0
 31 69  1  0  0  0
 32 38  1  0  0  0
 32 70  1  0  0  0
 32 71  1  0  0  0
 33 34  2  0  0  0
 33 38  1  0  0  0
 33 72  1  0  0  0
 34 35  1  0  0  0
 34 73  1  0  0  0
 35 36  2  0  0  0
 35 74  1  0  0  0
 36 37  1  0  0  0
 36 75  1  0  0  0
 37 38  2  0  0  0
 37 76  1  0  0  0
M  END
$$$$
