G61
  CCTOOLS-0919241038

 91 93  0  0  1  0  0  0  0  0999 V2000
   -7.0170   -3.2610    2.6490 O   0  0  0  0  0
   -8.4370   -3.1000    2.6710 C   0  0  0  0  0
   -6.3270   -2.5260    1.7370 C   0  0  0  0  0
   -7.0020   -1.6650    0.8850 C   0  0  0  0  0
   -6.2980   -0.9190   -0.0410 C   0  0  0  0  0
   -4.9230   -1.0310   -0.1190 C   0  0  0  0  0
   -4.2480   -1.8900    0.7290 C   0  0  0  0  0
   -4.9460   -2.6330    1.6610 C   0  0  0  0  0
   -4.0280   -0.0790   -1.3010 S   0  0  0  0  0
   -2.8080   -0.7710   -1.5320 O   0  0  0  0  0
   -4.9470    0.2420   -2.3360 O   0  0  0  0  0
   -3.6240    1.3520   -0.5730 N   0  0  0  0  0
   -4.5310    2.4990   -0.6590 C   0  0  0  0  0
   -5.4530    2.5130    0.5620 C   0  0  0  0  0
   -4.6170    2.7000    1.8300 C   0  0  0  0  0
   -6.4500    3.6660    0.4340 C   0  0  0  0  0
   -2.3590    1.4710    0.1570 C   0  0  0  0  0
   -1.2860    2.0420   -0.7730 C   0  0  0  0  0
   -1.6360    3.3770   -1.1430 O   0  0  0  0  0
    0.0630    2.0500   -0.0500 C   0  0  0  0  0
    0.4220    0.6810    0.3290 N   0  0  0  0  0
    0.5670   -0.2650   -0.6190 C   0  0  0  0  0
    0.4000    0.0170   -1.7890 O   0  0  0  0  0
    0.8970   -1.5230   -0.2710 O   0  0  0  0  0
    1.0370   -2.4890   -1.3460 C   0  0  0  0  0
    2.1330   -2.0280   -2.3080 C   0  0  0  0  0
    1.4120   -3.8520   -0.7600 C   0  0  0  0  0
   -0.2890   -2.6060   -2.1010 C   0  0  0  0  0
    1.1360    2.6200   -0.9790 C   0  0  0  0  0
    3.3300    1.6900   -0.2210 C   0  0  0  0  0
    4.5320    1.8050    0.4740 C   0  0  0  0  0
    4.8260    2.9830    1.1580 C   0  0  0  0  0
    3.9260    4.0290    1.1430 C   0  0  0  0  0
    2.7340    3.9100    0.4520 C   0  0  0  0  0
    2.4370    2.7430   -0.2280 C   0  0  0  0  0
    5.4960    0.6770    0.4860 C   0  0  0  0  0
    5.2030   -0.4980   -0.2020 C   0  0  0  0  0
    6.1050   -1.5500   -0.1890 C   0  0  0  0  0
    7.2990   -1.4340    0.5080 C   0  0  0  0  0
    7.5930   -0.2650    1.1950 C   0  0  0  0  0
    6.6980    0.7930    1.1810 C   0  0  0  0  0
    5.8200   -2.6970   -0.8600 O   0  0  0  0  0
    6.7950   -3.7410   -0.8040 C   0  0  0  0  0
    8.7630   -0.1550    1.8770 O   0  0  0  0  0
    9.6420   -1.2810    1.8450 C   0  0  0  0  0
   -8.8640   -3.7410    3.4420 H   0  0  0  0  0
   -8.6820   -2.0600    2.8860 H   0  0  0  0  0
   -8.8490   -3.3760    1.7000 H   0  0  0  0  0
   -8.0770   -1.5770    0.9450 H   0  0  0  0  0
   -6.8230   -0.2480   -0.7050 H   0  0  0  0  0
   -3.1730   -1.9760    0.6660 H   0  0  0  0  0
   -4.4180   -3.3000    2.3260 H   0  0  0  0  0
   -3.9500    3.4210   -0.6860 H   0  0  0  0  0
   -5.1300    2.4210   -1.5660 H   0  0  0  0  0
   -5.9940    1.5690    0.6190 H   0  0  0  0  0
   -3.9790    3.5760    1.7190 H   0  0  0  0  0
   -5.2790    2.8380    2.6840 H   0  0  0  0  0
   -3.9970    1.8170    1.9890 H   0  0  0  0  0
   -7.0460    3.5330   -0.4690 H   0  0  0  0  0
   -7.1070    3.6760    1.3040 H   0  0  0  0  0
   -5.9090    4.6100    0.3770 H   0  0  0  0  0
   -2.4930    2.1380    1.0090 H   0  0  0  0  0
   -2.0490    0.4880    0.5090 H   0  0  0  0  0
   -1.2140    1.4230   -1.6680 H   0  0  0  0  0
   -1.7170    3.9840   -0.3940 H   0  0  0  0  0
   -0.0090    2.6680    0.8450 H   0  0  0  0  0
    0.5550    0.4560    1.2630 H   0  0  0  0  0
    3.0770   -1.9450   -1.7690 H   0  0  0  0  0
    2.2380   -2.7540   -3.1140 H   0  0  0  0  0
    1.8660   -1.0570   -2.7250 H   0  0  0  0  0
    0.6310   -4.1810   -0.0750 H   0  0  0  0  0
    1.5170   -4.5780   -1.5670 H   0  0  0  0  0
    2.3560   -3.7690   -0.2220 H   0  0  0  0  0
   -0.5560   -1.6360   -2.5180 H   0  0  0  0  0
   -0.1840   -3.3320   -2.9080 H   0  0  0  0  0
   -1.0700   -2.9350   -1.4160 H   0  0  0  0  0
    1.2700    1.9540   -1.8310 H   0  0  0  0  0
    0.8260    3.6040   -1.3320 H   0  0  0  0  0
    3.0990    0.7810   -0.7560 H   0  0  0  0  0
    5.7570    3.0770    1.6980 H   0  0  0  0  0
    4.1530    4.9430    1.6730 H   0  0  0  0  0
    2.0320    4.7310    0.4440 H   0  0  0  0  0
    4.2740   -0.5900   -0.7450 H   0  0  0  0  0
    8.0000   -2.2550    0.5180 H   0  0  0  0  0
    6.9290    1.7040    1.7120 H   0  0  0  0  0
    6.9490   -4.0390    0.2330 H   0  0  0  0  0
    6.4440   -4.5970   -1.3800 H   0  0  0  0  0
    7.7360   -3.3820   -1.2230 H   0  0  0  0  0
    9.1360   -2.1490    2.2690 H   0  0  0  0  0
    9.9230   -1.4930    0.8130 H   0  0  0  0  0
   10.5360   -1.0610    2.4280 H   0  0  0  0  0
  2  1  1  0  0  0
  2 46  1  0  0  0
  2 47  1  0  0  0
  2 48  1  0  0  0
  3  1  1  0  0  0
  3  8  2  0  0  0
  4  3  1  0  0  0
  4 49  1  0  0  0
  5  4  2  0  0  0
  5  6  1  0  0  0
  5 50  1  0  0  0
  6  7  2  0  0  0
  7  8  1  0  0  0
  7 51  1  0  0  0
  8 52  1  0  0  0
  9  6  1  0  0  0
  9 10  2  0  0  0
 11  9  2  0  0  0
 12  9  1  0  0  0
 12 17  1  0  0  0
 13 12  1  0  0  0
 13 53  1  0  0  0
 13 54  1  0  0  0
 14 13  1  0  0  0
 14 55  1  0  0  0
 15 14  1  0  0  0
 15 56  1  0  0  0
 15 57  1  0  0  0
 15 58  1  0  0  0
 16 14  1  0  0  0
 16 59  1  0  0  0
 16 60  1  0  0  0
 16 61  1  0  0  0
 17 62  1  0  0  0
 17 63  1  0  0  0
 18 20  1  0  0  0
 18 19  1  0  0  0
 18 17  1  0  0  0
 18 64  1  0  0  0
 19 65  1  0  0  0
 20 29  1  0  0  0
 20 66  1  0  0  0
 21 20  1  0  0  0
 21 67  1  0  0  0
 22 21  1  0  0  0
 23 22  2  0  0  0
 24 22  1  0  0  0
 25 24  1  0  0  0
 26 25  1  0  0  0
 26 68  1  0  0  0
 26 69  1  0  0  0
 26 70  1  0  0  0
 27 25  1  0  0  0
 27 71  1  0  0  0
 27 72  1  0  0  0
 27 73  1  0  0  0
 28 25  1  0  0  0
 28 74  1  0  0  0
 28 75  1  0  0  0
 28 76  1  0  0  0
 29 35  1  0  0  0
 29 77  1  0  0  0
 29 78  1  0  0  0
 30 31  2  0  0  0
 30 35  1  0  0  0
 30 79  1  0  0  0
 31 32  1  0  0  0
 32 33  2  0  0  0
 32 80  1  0  0  0
 33 81  1  0  0  0
 34 33  1  0  0  0
 34 82  1  0  0  0
 35 34  2  0  0  0
 36 31  1  0  0  0
 36 41  2  0  0  0
 37 36  1  0  0  0
 37 83  1  0  0  0
 38 37  2  0  0  0
 38 39  1  0  0  0
 39 40  2  0  0  0
 39 84  1  0  0  0
 40 41  1  0  0  0
 40 44  1  0  0  0
 41 85  1  0  0  0
 42 38  1  0  0  0
 43 42  1  0  0  0
 43 86  1  0  0  0
 43 87  1  0  0  0
 43 88  1  0  0  0
 45 44  1  0  0  0
 45 89  1  0  0  0
 45 90  1  0  0  0
 45 91  1  0  0  0
M  END
$$$$
