G64
  CCTOOLS-0919241038

 95 98  0  0  1  0  0  0  0  0999 V2000
    8.3110   -2.7570   -0.5530 C   0  0  0  0  0
    9.3300   -3.3280   -1.2480 O   0  0  0  0  0
    8.9730   -4.2140   -2.3110 C   0  0  0  0  0
    8.5850   -1.8870    0.4920 C   0  0  0  0  0
    7.5480   -1.3070    1.1970 C   0  0  0  0  0
    6.2380   -1.5940    0.8620 C   0  0  0  0  0
    5.9620   -2.4610   -0.1790 C   0  0  0  0  0
    6.9950   -3.0390   -0.8910 C   0  0  0  0  0
    4.9170   -0.8540    1.7640 S   0  0  0  0  0
    3.7760   -1.6720    1.5480 O   0  0  0  0  0
    5.4290   -0.5590    3.0560 O   0  0  0  0  0
    4.5900    0.6030    1.0470 N   0  0  0  0  0
    5.3560    1.7930    1.4240 C   0  0  0  0  0
    6.1390    2.3020    0.2120 C   0  0  0  0  0
    6.8610    3.5990    0.5800 C   0  0  0  0  0
    7.1650    1.2490   -0.2100 C   0  0  0  0  0
    3.5350    0.7010    0.0350 C   0  0  0  0  0
    2.2320    1.1490    0.6990 C   0  0  0  0  0
    2.3890    2.4740    1.2110 O   0  0  0  0  0
    1.1020    1.1310   -0.3320 C   0  0  0  0  0
   -0.1680    1.4440    0.3290 N   0  0  0  0  0
   -1.3290    1.0160   -0.2040 C   0  0  0  0  0
   -1.3230    0.3690   -1.2340 O   0  0  0  0  0
    1.3830    2.1750   -1.4150 C   0  0  0  0  0
   -0.8240    2.8190   -2.4040 C   0  0  0  0  0
   -1.7820    2.7310   -3.3960 C   0  0  0  0  0
   -1.5790    1.8970   -4.4800 C   0  0  0  0  0
   -0.4190    1.1510   -4.5710 C   0  0  0  0  0
    0.5390    1.2400   -3.5780 C   0  0  0  0  0
    0.3360    2.0740   -2.4940 C   0  0  0  0  0
   -2.6100    1.3320    0.4630 C   0  0  0  0  0
   -2.6190    2.0740    1.6460 C   0  0  0  0  0
   -3.8140    2.3700    2.2700 C   0  0  0  0  0
   -5.0080    1.9350    1.7300 C   0  0  0  0  0
   -5.0140    1.1920    0.5480 C   0  0  0  0  0
   -3.8120    0.8940   -0.0900 C   0  0  0  0  0
   -3.8160    3.1710    3.5460 C   0  0  0  0  0
   -6.2930    0.7260   -0.0290 C   0  0  0  0  0
   -6.4400    0.6920   -1.2350 O   0  0  0  0  0
   -7.2970    0.3390    0.7840 N   0  0  0  0  0
   -7.1670    0.4950    2.2340 C   0  0  0  0  0
   -8.5180   -0.2380    0.2150 C   0  0  0  0  0
   -8.3640   -1.7340    0.1100 C   0  0  0  0  0
   -8.6950   -2.6340    1.0520 N   0  0  0  0  0
   -8.4200   -3.8260    0.6050 C   0  0  0  0  0
   -7.9090   -3.7170   -0.6280 O   0  0  0  0  0
   -7.8780   -2.4080   -0.9460 C   0  0  0  0  0
   -7.3800   -1.8120   -2.2370 C   0  0  0  0  0
   -8.6350   -5.1160    1.3550 C   0  0  0  0  0
    8.3890   -5.0440   -1.9120 H   0  0  0  0  0
    8.3800   -3.6750   -3.0500 H   0  0  0  0  0
    9.8770   -4.5990   -2.7820 H   0  0  0  0  0
    9.6090   -1.6630    0.7540 H   0  0  0  0  0
    7.7610   -0.6300    2.0110 H   0  0  0  0  0
    4.9370   -2.6840   -0.4390 H   0  0  0  0  0
    6.7790   -3.7160   -1.7040 H   0  0  0  0  0
    4.6730    2.5700    1.7680 H   0  0  0  0  0
    6.0500    1.5400    2.2250 H   0  0  0  0  0
    5.4510    2.4900   -0.6120 H   0  0  0  0  0
    7.5490    3.4110    1.4040 H   0  0  0  0  0
    7.4190    3.9620   -0.2840 H   0  0  0  0  0
    6.1300    4.3500    0.8810 H   0  0  0  0  0
    7.7810    1.6450   -1.0180 H   0  0  0  0  0
    7.7990    0.9970    0.6400 H   0  0  0  0  0
    6.6470    0.3540   -0.5540 H   0  0  0  0  0
    3.8260    1.4280   -0.7230 H   0  0  0  0  0
    3.3890   -0.2730   -0.4330 H   0  0  0  0  0
    1.9880    0.4700    1.5160 H   0  0  0  0  0
    2.6070    3.1320    0.5380 H   0  0  0  0  0
    1.0400    0.1430   -0.7870 H   0  0  0  0  0
   -0.1720    1.9600    1.1500 H   0  0  0  0  0
    1.3570    3.1710   -0.9750 H   0  0  0  0  0
    2.3680    1.9940   -1.8470 H   0  0  0  0  0
   -0.9800    3.4740   -1.5590 H   0  0  0  0  0
   -2.6880    3.3140   -3.3250 H   0  0  0  0  0
   -2.3280    1.8280   -5.2550 H   0  0  0  0  0
   -0.2610    0.4990   -5.4170 H   0  0  0  0  0
    1.4460    0.6570   -3.6490 H   0  0  0  0  0
   -1.6880    2.4170    2.0730 H   0  0  0  0  0
   -5.9400    2.1690    2.2240 H   0  0  0  0  0
   -3.8110    0.3200   -1.0050 H   0  0  0  0  0
   -3.8860    4.2330    3.3090 H   0  0  0  0  0
   -4.6690    2.8790    4.1580 H   0  0  0  0  0
   -2.8930    2.9820    4.0950 H   0  0  0  0  0
   -7.5270    1.4820    2.5270 H   0  0  0  0  0
   -7.7570   -0.2710    2.7370 H   0  0  0  0  0
   -6.1200    0.3920    2.5190 H   0  0  0  0  0
   -9.3650   -0.0050    0.8610 H   0  0  0  0  0
   -8.6900    0.1800   -0.7760 H   0  0  0  0  0
   -7.0400   -2.6090   -2.8980 H   0  0  0  0  0
   -8.1890   -1.2610   -2.7180 H   0  0  0  0  0
   -6.5530   -1.1330   -2.0290 H   0  0  0  0  0
   -8.3100   -5.9530    0.7380 H   0  0  0  0  0
   -8.0570   -5.0990    2.2790 H   0  0  0  0  0
   -9.6930   -5.2270    1.5910 H   0  0  0  0  0
  1  4  2  0  0  0
  2  1  1  0  0  0
  2  3  1  0  0  0
  3 50  1  0  0  0
  3 51  1  0  0  0
  3 52  1  0  0  0
  4  5  1  0  0  0
  4 53  1  0  0  0
  5 54  1  0  0  0
  6  5  2  0  0  0
  6  9  1  0  0  0
  7  6  1  0  0  0
  7 55  1  0  0  0
  8  7  2  0  0  0
  8  1  1  0  0  0
  8 56  1  0  0  0
  9 11  2  0  0  0
  9 12  1  0  0  0
 10  9  2  0  0  0
 12 17  1  0  0  0
 12 13  1  0  0  0
 13 14  1  0  0  0
 13 57  1  0  0  0
 13 58  1  0  0  0
 14 16  1  0  0  0
 14 59  1  0  0  0
 15 14  1  0  0  0
 15 60  1  0  0  0
 15 61  1  0  0  0
 15 62  1  0  0  0
 16 63  1  0  0  0
 16 64  1  0  0  0
 16 65  1  0  0  0
 17 18  1  0  0  0
 17 66  1  0  0  0
 17 67  1  0  0  0
 18 19  1  0  0  0
 18 68  1  0  0  0
 19 69  1  0  0  0
 20 21  1  0  0  0
 20 18  1  0  0  0
 20 70  1  0  0  0
 21 22  1  0  0  0
 21 71  1  0  0  0
 22 23  2  0  0  0
 22 31  1  0  0  0
 24 20  1  0  0  0
 24 72  1  0  0  0
 24 73  1  0  0  0
 25 30  1  0  0  0
 25 74  1  0  0  0
 26 25  2  0  0  0
 26 75  1  0  0  0
 27 28  2  0  0  0
 27 26  1  0  0  0
 27 76  1  0  0  0
 28 29  1  0  0  0
 28 77  1  0  0  0
 29 30  2  0  0  0
 29 78  1  0  0  0
 30 24  1  0  0  0
 31 32  2  0  0  0
 32 33  1  0  0  0
 32 79  1  0  0  0
 33 37  1  0  0  0
 34 33  2  0  0  0
 34 80  1  0  0  0
 35 34  1  0  0  0
 36 35  2  0  0  0
 36 31  1  0  0  0
 36 81  1  0  0  0
 37 82  1  0  0  0
 37 83  1  0  0  0
 37 84  1  0  0  0
 38 39  2  0  0  0
 38 35  1  0  0  0
 40 38  1  0  0  0
 41 40  1  0  0  0
 41 85  1  0  0  0
 41 86  1  0  0  0
 41 87  1  0  0  0
 42 40  1  0  0  0
 42 88  1  0  0  0
 42 89  1  0  0  0
 43 42  1  0  0  0
 44 43  1  0  0  0
 45 46  1  0  0  0
 45 44  2  0  0  0
 46 47  1  0  0  0
 47 48  1  0  0  0
 47 43  2  0  0  0
 48 90  1  0  0  0
 48 91  1  0  0  0
 48 92  1  0  0  0
 49 45  1  0  0  0
 49 93  1  0  0  0
 49 94  1  0  0  0
 49 95  1  0  0  0
M  END
$$$$
