G79
  CCTOOLS-0919241039

 87 91  0  0  1  0  0  0  0  0999 V2000
    7.5410    0.4930   -1.5830 C   0  0  0  0  0
    7.6470   -0.3600   -0.4950 C   0  0  0  0  0
    6.5390   -1.0580   -0.0550 C   0  0  0  0  0
    5.3250   -0.9070   -0.6990 C   0  0  0  0  0
    5.2160   -0.0580   -1.7840 C   0  0  0  0  0
    6.3210    0.6430   -2.2280 C   0  0  0  0  0
    3.9130   -1.7990   -0.1350 S   0  0  0  0  0
    3.0280   -1.8910   -1.2430 O   0  0  0  0  0
    4.4080   -2.9350    0.5610 O   0  0  0  0  0
    3.1540   -0.8530    0.9920 N   0  0  0  0  0
    3.5190   -0.9650    2.4070 C   0  0  0  0  0
    4.5950    0.0700    2.7400 C   0  0  0  0  0
    4.0300    1.4770    2.5340 C   0  0  0  0  0
    5.0310   -0.0970    4.1970 C   0  0  0  0  0
    2.1180    0.0950    0.5760 C   0  0  0  0  0
    0.7430   -0.5630    0.7060 C   0  0  0  0  0
    0.4740   -0.8360    2.0820 O   0  0  0  0  0
   -0.3280    0.3810    0.1540 C   0  0  0  0  0
   -1.6280   -0.2940    0.1690 N   0  0  0  0  0
   -2.5960    0.0880   -0.6880 C   0  0  0  0  0
   -2.3900    0.9930   -1.4720 O   0  0  0  0  0
   -3.7900   -0.5320   -0.6750 O   0  0  0  0  0
   -4.7850   -0.0670   -1.6250 C   0  0  0  0  0
   -4.8210   -2.3470   -2.6110 C   0  0  0  0  0
   -6.2410   -2.5650   -2.0890 C   0  0  0  0  0
   -6.5050   -1.7460   -0.8480 C   0  0  0  0  0
   -5.7120   -2.1510    0.2750 O   0  0  0  0  0
   -5.8330   -1.0920    1.2480 C   0  0  0  0  0
   -6.0930    0.2160    0.4560 C   0  0  0  0  0
   -6.1800   -0.2510   -1.0240 C   0  0  0  0  0
   -0.3970    1.6380    1.0230 C   0  0  0  0  0
   -2.6990    2.5850    0.7620 C   0  0  0  0  0
   -3.5840    3.4890    0.2050 C   0  0  0  0  0
   -3.1320    4.4280   -0.7030 C   0  0  0  0  0
   -1.7960    4.4630   -1.0540 C   0  0  0  0  0
   -0.9110    3.5590   -0.4970 C   0  0  0  0  0
   -1.3620    2.6200    0.4110 C   0  0  0  0  0
    8.6280    1.1850   -2.0140 O   0  0  0  0  0
    9.8510    0.9810   -1.3030 C   0  0  0  0  0
   -6.9970   -1.3480    2.0540 O   0  0  0  0  0
   -7.6450   -0.0800    2.2870 C   0  0  0  0  0
   -7.5020    0.6600    0.9120 C   0  0  0  0  0
   -4.6460   -0.8570   -2.9240 C   0  0  0  0  0
    8.5950   -0.4790    0.0090 H   0  0  0  0  0
    6.6210   -1.7230    0.7930 H   0  0  0  0  0
    4.2670    0.0580   -2.2860 H   0  0  0  0  0
    6.2360    1.3060   -3.0760 H   0  0  0  0  0
    2.6380   -0.7850    3.0240 H   0  0  0  0  0
    3.9030   -1.9660    2.6050 H   0  0  0  0  0
    5.4540   -0.0760    2.0840 H   0  0  0  0  0
    3.0990    1.5790    3.0910 H   0  0  0  0  0
    4.7500    2.2130    2.8920 H   0  0  0  0  0
    3.8400    1.6410    1.4740 H   0  0  0  0  0
    5.4330   -1.1000    4.3430 H   0  0  0  0  0
    5.7980    0.6400    4.4330 H   0  0  0  0  0
    4.1720    0.0490    4.8520 H   0  0  0  0  0
    2.1590    0.9800    1.2100 H   0  0  0  0  0
    2.2860    0.3840   -0.4620 H   0  0  0  0  0
    0.7310   -1.4950    0.1410 H   0  0  0  0  0
    0.4680   -0.0500    2.6460 H   0  0  0  0  0
   -0.0750    0.6600   -0.8690 H   0  0  0  0  0
   -1.7930   -1.0170    0.7940 H   0  0  0  0  0
   -4.6200    0.9900   -1.8290 H   0  0  0  0  0
   -4.1000   -2.6500   -1.8510 H   0  0  0  0  0
   -4.6680   -2.9340   -3.5170 H   0  0  0  0  0
   -6.9530   -2.2790   -2.8630 H   0  0  0  0  0
   -6.3760   -3.6210   -1.8530 H   0  0  0  0  0
   -7.5580   -1.8370   -0.5840 H   0  0  0  0  0
   -4.9360   -1.0130    1.8620 H   0  0  0  0  0
   -5.3260    0.9730    0.6170 H   0  0  0  0  0
   -6.9450    0.2850   -1.5870 H   0  0  0  0  0
   -0.7360    1.3700    2.0240 H   0  0  0  0  0
    0.5920    2.0920    1.0850 H   0  0  0  0  0
   -3.0510    1.8530    1.4750 H   0  0  0  0  0
   -4.6280    3.4610    0.4790 H   0  0  0  0  0
   -3.8240    5.1340   -1.1390 H   0  0  0  0  0
   -1.4430    5.1960   -1.7640 H   0  0  0  0  0
    0.1340    3.5860   -0.7710 H   0  0  0  0  0
   10.6360    1.5910   -1.7490 H   0  0  0  0  0
    9.7160    1.2670   -0.2600 H   0  0  0  0  0
   10.1320   -0.0710   -1.3580 H   0  0  0  0  0
   -8.6930   -0.2270    2.5470 H   0  0  0  0  0
   -7.1310    0.4760    3.0710 H   0  0  0  0  0
   -7.5510    1.7400    1.0450 H   0  0  0  0  0
   -8.2600    0.3200    0.2070 H   0  0  0  0  0
   -5.4140   -0.5390   -3.6300 H   0  0  0  0  0
   -3.6580   -0.6870   -3.3520 H   0  0  0  0  0
  1  6  2  0  0  0
  2  3  2  0  0  0
  2  1  1  0  0  0
  2 44  1  0  0  0
  3  4  1  0  0  0
  3 45  1  0  0  0
  4  5  2  0  0  0
  4  7  1  0  0  0
  5 46  1  0  0  0
  6  5  1  0  0  0
  6 47  1  0  0  0
  7  9  2  0  0  0
  7 10  1  0  0  0
  8  7  2  0  0  0
 10 15  1  0  0  0
 10 11  1  0  0  0
 11 12  1  0  0  0
 11 48  1  0  0  0
 11 49  1  0  0  0
 12 14  1  0  0  0
 12 50  1  0  0  0
 13 12  1  0  0  0
 13 51  1  0  0  0
 13 52  1  0  0  0
 13 53  1  0  0  0
 14 54  1  0  0  0
 14 55  1  0  0  0
 14 56  1  0  0  0
 15 16  1  0  0  0
 15 57  1  0  0  0
 15 58  1  0  0  0
 16 17  1  0  0  0
 16 59  1  0  0  0
 17 60  1  0  0  0
 18 19  1  0  0  0
 18 16  1  0  0  0
 18 61  1  0  0  0
 19 20  1  0  0  0
 19 62  1  0  0  0
 20 22  1  0  0  0
 21 20  2  0  0  0
 22 23  1  0  0  0
 23 43  1  0  0  0
 23 63  1  0  0  0
 24 64  1  0  0  0
 24 65  1  0  0  0
 25 24  1  0  0  0
 25 66  1  0  0  0
 25 67  1  0  0  0
 26 25  1  0  0  0
 26 68  1  0  0  0
 27 26  1  0  0  0
 28 27  1  0  0  0
 28 69  1  0  0  0
 29 28  1  0  0  0
 29 30  1  0  0  0
 29 70  1  0  0  0
 30 23  1  0  0  0
 30 26  1  0  0  0
 30 71  1  0  0  0
 31 18  1  0  0  0
 31 72  1  0  0  0
 31 73  1  0  0  0
 32 37  1  0  0  0
 32 74  1  0  0  0
 33 32  2  0  0  0
 33 75  1  0  0  0
 34 35  2  0  0  0
 34 33  1  0  0  0
 34 76  1  0  0  0
 35 36  1  0  0  0
 35 77  1  0  0  0
 36 37  2  0  0  0
 36 78  1  0  0  0
 37 31  1  0  0  0
 38  1  1  0  0  0
 38 39  1  0  0  0
 39 79  1  0  0  0
 39 80  1  0  0  0
 39 81  1  0  0  0
 40 28  1  0  0  0
 41 40  1  0  0  0
 41 82  1  0  0  0
 41 83  1  0  0  0
 42 41  1  0  0  0
 42 29  1  0  0  0
 42 84  1  0  0  0
 42 85  1  0  0  0
 43 24  1  0  0  0
 43 86  1  0  0  0
 43 87  1  0  0  0
M  END
$$$$
