G7G
  CCTOOLS-0919241039

 50 53  0  0  1  0  0  0  0  0999 V2000
    3.3630   -0.9530    0.1400 C   0  0  0  0  0
    4.6950   -1.6330   -0.1840 C   0  0  0  0  0
    4.7330   -2.9260    0.4240 O   0  0  0  0  0
    5.8430   -0.7770    0.3610 C   0  0  0  0  0
    7.0930   -1.3680    0.0010 O   0  0  0  0  0
    5.7460    0.6290   -0.2390 C   0  0  0  0  0
    6.7680    1.4570    0.3190 O   0  0  0  0  0
    4.3720    1.2210    0.0880 C   0  0  0  0  0
    3.3510    0.3610   -0.4210 O   0  0  0  0  0
    4.2470    2.5810   -0.5500 C   0  0  0  0  0
    2.2900   -1.7180   -0.4150 O   0  0  0  0  0
   -0.0520   -2.0090   -0.6390 C   0  0  0  0  0
    1.0280   -1.3070   -0.1290 C   0  0  0  0  0
    0.8350   -0.1870    0.6730 C   0  0  0  0  0
   -0.4460    0.2420    0.9660 C   0  0  0  0  0
   -1.5420   -0.4590    0.4480 C   0  0  0  0  0
   -1.3470   -1.5980   -0.3540 C   0  0  0  0  0
   -2.9250   -0.0300    0.7160 C   0  0  0  0  0
   -3.9680   -0.6660   -0.1120 C   0  0  0  0  0
   -3.6260   -1.7570   -0.8440 C   0  0  0  0  0
   -2.4010   -2.2820   -0.8380 O   0  0  0  0  0
   -5.3500   -0.1290   -0.1430 C   0  0  0  0  0
   -5.5960    1.1360   -0.6740 C   0  0  0  0  0
   -6.8830    1.6320   -0.7030 C   0  0  0  0  0
   -7.9320    0.8740   -0.2020 C   0  0  0  0  0
   -7.6910   -0.3870    0.3270 C   0  0  0  0  0
   -6.4070   -0.8910    0.3530 C   0  0  0  0  0
   -3.1910    0.7990    1.5700 O   0  0  0  0  0
   -0.6400    1.3320    1.7510 O   0  0  0  0  0
   -9.1990    1.3660   -0.2310 O   0  0  0  0  0
    3.4310    2.7670   -1.4210 O   0  0  0  0  0
    5.0430    3.5860   -0.1490 O   0  0  0  0  0
    3.2410   -0.8880    1.2210 H   0  0  0  0  0
    4.7990   -1.7360   -1.2650 H   0  0  0  0  0
    4.0300   -3.5200    0.1280 H   0  0  0  0  0
    5.7670   -0.7160    1.4470 H   0  0  0  0  0
    7.2180   -2.2630    0.3440 H   0  0  0  0  0
    5.8710    0.5730   -1.3200 H   0  0  0  0  0
    6.7660    2.3640   -0.0170 H   0  0  0  0  0
    4.2650    1.3150    1.1680 H   0  0  0  0  0
    0.1140   -2.8750   -1.2630 H   0  0  0  0  0
    1.6870    0.3480    1.0670 H   0  0  0  0  0
   -4.3800   -2.2190   -1.4630 H   0  0  0  0  0
   -4.7800    1.7270   -1.0630 H   0  0  0  0  0
   -7.0740    2.6120   -1.1140 H   0  0  0  0  0
   -8.5090   -0.9740    0.7160 H   0  0  0  0  0
   -6.2200   -1.8730    0.7610 H   0  0  0  0  0
   -0.6870    2.1650    1.2620 H   0  0  0  0  0
   -9.6870    1.1500   -1.0370 H   0  0  0  0  0
    4.9250    4.4400   -0.5870 H   0  0  0  0  0
  1 11  1  0  0  0
  1 33  1  0  0  0
  2  1  1  0  0  0
  2  3  1  0  0  0
  2 34  1  0  0  0
  3 35  1  0  0  0
  4  2  1  0  0  0
  4 36  1  0  0  0
  5  4  1  0  0  0
  5 37  1  0  0  0
  6  4  1  0  0  0
  6  8  1  0  0  0
  6 38  1  0  0  0
  7  6  1  0  0  0
  7 39  1  0  0  0
  8  9  1  0  0  0
  8 40  1  0  0  0
  9  1  1  0  0  0
 10  8  1  0  0  0
 11 13  1  0  0  0
 12 17  1  0  0  0
 12 41  1  0  0  0
 13 12  2  0  0  0
 13 14  1  0  0  0
 14 15  2  0  0  0
 14 42  1  0  0  0
 15 29  1  0  0  0
 15 16  1  0  0  0
 16 18  1  0  0  0
 17 16  2  0  0  0
 17 21  1  0  0  0
 18 28  2  0  0  0
 18 19  1  0  0  0
 19 22  1  0  0  0
 20 19  2  0  0  0
 20 43  1  0  0  0
 21 20  1  0  0  0
 22 27  2  0  0  0
 22 23  1  0  0  0
 23 24  2  0  0  0
 23 44  1  0  0  0
 24 25  1  0  0  0
 24 45  1  0  0  0
 25 30  1  0  0  0
 26 25  2  0  0  0
 26 46  1  0  0  0
 27 26  1  0  0  0
 27 47  1  0  0  0
 29 48  1  0  0  0
 30 49  1  0  0  0
 31 10  2  0  0  0
 32 10  1  0  0  0
 32 50  1  0  0  0
M  END
$$$$
