G89
  CCTOOLS-0919241039

 80 83  0  0  1  0  0  0  0  0999 V2000
   -2.1340   -0.6880   -0.0820 C   0  0  0  0  0
   -2.3390   -1.3810    0.8950 O   0  0  0  0  0
   -3.1320    0.0480   -0.6060 O   0  0  0  0  0
   -4.4260   -0.0370    0.0460 C   0  0  0  0  0
   -4.5600    1.0590    1.1240 C   0  0  0  0  0
   -6.0180    1.5470    1.0810 C   0  0  0  0  0
   -6.0350    2.9130    0.6140 O   0  0  0  0  0
   -7.3200    3.0940   -0.0160 C   0  0  0  0  0
   -7.5680    1.7810   -0.7910 C   0  0  0  0  0
   -6.7200    0.7340   -0.0400 C   0  0  0  0  0
   -5.5620    0.2790   -0.9580 C   0  0  0  0  0
   -8.9520    1.4280   -0.7480 O   0  0  0  0  0
    3.9250   -0.9030    0.0260 N   0  0  0  0  0
    4.6820   -1.1850   -1.1960 C   0  0  0  0  0
    5.5520   -2.4250   -0.9830 C   0  0  0  0  0
    6.2460   -2.7930   -2.2960 C   0  0  0  0  0
    6.6050   -2.1320    0.0870 C   0  0  0  0  0
    2.6500   -1.5820    0.2720 C   0  0  0  0  0
    1.5230   -0.8190   -0.4270 C   0  0  0  0  0
    1.7150   -0.8750   -1.8420 O   0  0  0  0  0
    0.1780   -1.4560   -0.0690 C   0  0  0  0  0
   -0.9080   -0.6550   -0.6400 N   0  0  0  0  0
    0.1190   -2.8750   -0.6370 C   0  0  0  0  0
   -2.3000   -3.4400   -0.9440 C   0  0  0  0  0
   -3.4660   -4.0540   -0.5270 C   0  0  0  0  0
   -3.4840   -4.7730    0.6540 C   0  0  0  0  0
   -2.3350   -4.8790    1.4160 C   0  0  0  0  0
   -1.1700   -4.2640    0.9980 C   0  0  0  0  0
   -1.1520   -3.5450   -0.1820 C   0  0  0  0  0
    4.5110    0.1830    1.1310 S   0  0  0  0  0
    5.9160    0.2400    0.9310 O   0  0  0  0  0
    3.9150   -0.1520    2.3770 O   0  0  0  0  0
    3.8810    1.7680    0.6880 C   0  0  0  0  0
    4.5930    2.5760   -0.1770 C   0  0  0  0  0
    2.6750    2.2010    1.2080 C   0  0  0  0  0
    4.1010    3.8190   -0.5260 C   0  0  0  0  0
    2.1790    3.4430    0.8630 C   0  0  0  0  0
    2.8920    4.2560   -0.0060 C   0  0  0  0  0
    2.4030    5.4760   -0.3520 O   0  0  0  0  0
    3.1910    6.2600   -1.2510 C   0  0  0  0  0
   -4.5670   -1.0240    0.4860 H   0  0  0  0  0
   -4.3340    0.6440    2.1060 H   0  0  0  0  0
   -3.8830    1.8840    0.9020 H   0  0  0  0  0
   -6.5090    1.4420    2.0490 H   0  0  0  0  0
   -8.0950    3.2430    0.7360 H   0  0  0  0  0
   -7.2900    3.9400   -0.7030 H   0  0  0  0  0
   -7.2300    1.8780   -1.8230 H   0  0  0  0  0
   -7.3160   -0.0940    0.3450 H   0  0  0  0  0
   -5.2670    1.0810   -1.6340 H   0  0  0  0  0
   -5.8410   -0.6140   -1.5170 H   0  0  0  0  0
   -9.5380    2.0820   -1.1540 H   0  0  0  0  0
    3.9900   -1.3630   -2.0190 H   0  0  0  0  0
    5.3170   -0.3320   -1.4340 H   0  0  0  0  0
    4.9260   -3.2570   -0.6580 H   0  0  0  0  0
    6.8720   -1.9620   -2.6210 H   0  0  0  0  0
    6.8660   -3.6770   -2.1440 H   0  0  0  0  0
    5.4960   -3.0020   -3.0580 H   0  0  0  0  0
    6.1100   -1.8700    1.0220 H   0  0  0  0  0
    7.2250   -3.0160    0.2380 H   0  0  0  0  0
    7.2310   -1.3010   -0.2380 H   0  0  0  0  0
    2.6990   -2.5980   -0.1200 H   0  0  0  0  0
    2.4570   -1.6160    1.3440 H   0  0  0  0  0
    1.5320    0.2210   -0.1000 H   0  0  0  0  0
    1.7190   -1.7720   -2.2030 H   0  0  0  0  0
    0.0710   -1.4930    1.0150 H   0  0  0  0  0
   -0.7440   -0.1010   -1.4190 H   0  0  0  0  0
    0.1370   -2.8320   -1.7260 H   0  0  0  0  0
    0.9770   -3.4450   -0.2820 H   0  0  0  0  0
   -2.2850   -2.8820   -1.8690 H   0  0  0  0  0
   -4.3630   -3.9720   -1.1220 H   0  0  0  0  0
   -4.3940   -5.2530    0.9800 H   0  0  0  0  0
   -2.3490   -5.4400    2.3390 H   0  0  0  0  0
   -0.2720   -4.3460    1.5940 H   0  0  0  0  0
    5.5350    2.2360   -0.5820 H   0  0  0  0  0
    2.1200    1.5670    1.8850 H   0  0  0  0  0
    4.6580    4.4500   -1.2030 H   0  0  0  0  0
    1.2370    3.7810    1.2690 H   0  0  0  0  0
    4.1680    6.4500   -0.8070 H   0  0  0  0  0
    3.3180    5.7180   -2.1890 H   0  0  0  0  0
    2.6880    7.2070   -1.4440 H   0  0  0  0  0
  1  2  2  0  0  0
  1  3  1  0  0  0
  3  4  1  0  0  0
  4  5  1  0  0  0
  4 11  1  0  0  0
  4 41  1  0  0  0
  5  6  1  0  0  0
  5 42  1  0  0  0
  5 43  1  0  0  0
  6  7  1  0  0  0
  6 10  1  0  0  0
  6 44  1  0  0  0
  7  8  1  0  0  0
  8  9  1  0  0  0
  8 45  1  0  0  0
  8 46  1  0  0  0
  9 10  1  0  0  0
  9 12  1  0  0  0
  9 47  1  0  0  0
 10 11  1  0  0  0
 10 48  1  0  0  0
 11 49  1  0  0  0
 11 50  1  0  0  0
 12 51  1  0  0  0
 13 14  1  0  0  0
 13 18  1  0  0  0
 14 15  1  0  0  0
 14 52  1  0  0  0
 14 53  1  0  0  0
 15 16  1  0  0  0
 15 17  1  0  0  0
 15 54  1  0  0  0
 16 55  1  0  0  0
 16 56  1  0  0  0
 16 57  1  0  0  0
 17 58  1  0  0  0
 17 59  1  0  0  0
 17 60  1  0  0  0
 18 19  1  0  0  0
 18 61  1  0  0  0
 18 62  1  0  0  0
 19 20  1  0  0  0
 19 21  1  0  0  0
 19 63  1  0  0  0
 20 64  1  0  0  0
 21 22  1  0  0  0
 21 23  1  0  0  0
 21 65  1  0  0  0
 22  1  1  0  0  0
 22 66  1  0  0  0
 23 29  1  0  0  0
 23 67  1  0  0  0
 23 68  1  0  0  0
 24 25  2  0  0  0
 24 29  1  0  0  0
 24 69  1  0  0  0
 25 26  1  0  0  0
 25 70  1  0  0  0
 26 27  2  0  0  0
 26 71  1  0  0  0
 27 28  1  0  0  0
 27 72  1  0  0  0
 28 29  2  0  0  0
 28 73  1  0  0  0
 30 31  2  0  0  0
 30 32  2  0  0  0
 30 13  1  0  0  0
 33 34  1  0  0  0
 33 30  1  0  0  0
 34 36  2  0  0  0
 34 74  1  0  0  0
 35 33  2  0  0  0
 35 75  1  0  0  0
 36 76  1  0  0  0
 37 35  1  0  0  0
 37 77  1  0  0  0
 38 37  2  0  0  0
 38 36  1  0  0  0
 38 39  1  0  0  0
 39 40  1  0  0  0
 40 78  1  0  0  0
 40 79  1  0  0  0
 40 80  1  0  0  0
M  END
$$$$
