GA2
  CCTOOLS-0919241039

 31 32  0  0  0  0  0  0  0  0999 V2000
    0.2700   -0.0700   -4.1300 N   0  0  0  0  0
    1.3840    0.0640   -3.3570 C   0  0  0  0  0
    0.1400    0.0930   -1.4120 C   0  0  0  0  0
   -1.5970    0.0440   -0.0570 C   0  0  0  0  0
    0.1260    1.2070    4.4880 C   0  0  0  0  0
   -1.0130    0.4680    4.9300 O   0  0  0  0  0
    1.2470   -0.9220    3.8190 C   0  0  0  0  0
    0.1070   -1.6610    4.2610 O   0  0  0  0  0
    0.8030    0.4600    3.3380 C   0  0  0  0  0
   -0.1180    0.3150    2.2560 O   0  0  0  0  0
    0.6540    0.2970    1.0540 C   0  0  0  0  0
   -0.2370    0.1500   -0.0980 N   0  0  0  0  0
    1.3160    0.1440   -2.0470 N   0  0  0  0  0
    2.6130    0.1210   -3.9650 N   0  0  0  0  0
   -0.9520   -0.1350   -3.5580 C   0  0  0  0  0
   -1.9550   -0.2590   -4.2410 O   0  0  0  0  0
   -1.0400   -0.0490   -2.1490 C   0  0  0  0  0
   -2.0670   -0.0720   -1.2650 N   0  0  0  0  0
    0.3550   -0.1260   -5.0950 H   0  0  0  0  0
   -2.1940    0.0560    0.8420 H   0  0  0  0  0
    0.8290    1.3180    5.3140 H   0  0  0  0  0
   -0.1890    2.1920    4.1460 H   0  0  0  0  0
   -1.4100    0.9720    5.6540 H   0  0  0  0  0
    1.7300   -1.4550    2.9990 H   0  0  0  0  0
    1.9500   -0.8120    4.6440 H   0  0  0  0  0
    0.4290   -2.5240    4.5540 H   0  0  0  0  0
    1.6730    1.0240    3.0010 H   0  0  0  0  0
    1.3520   -0.5390    1.0830 H   0  0  0  0  0
    1.2100    1.2300    0.9660 H   0  0  0  0  0
    3.4160    0.2200   -3.4290 H   0  0  0  0  0
    2.6800    0.0590   -4.9310 H   0  0  0  0  0
  1  2  1  0  0  0
  1 15  1  0  0  0
  1 19  1  0  0  0
  2 13  2  0  0  0
  2 14  1  0  0  0
  3 12  1  0  0  0
  3 13  1  0  0  0
  3 17  2  0  0  0
  4 12  1  0  0  0
  4 18  2  0  0  0
  4 20  1  0  0  0
  5  6  1  0  0  0
  5  9  1  0  0  0
  5 21  1  0  0  0
  5 22  1  0  0  0
  6 23  1  0  0  0
  7  8  1  0  0  0
  7  9  1  0  0  0
  7 24  1  0  0  0
  7 25  1  0  0  0
  8 26  1  0  0  0
  9 10  1  0  0  0
  9 27  1  0  0  0
 10 11  1  0  0  0
 11 12  1  0  0  0
 11 28  1  0  0  0
 11 29  1  0  0  0
 14 30  1  0  0  0
 14 31  1  0  0  0
 15 16  2  0  0  0
 15 17  1  0  0  0
 17 18  1  0  0  0
M  END
$$$$
