GCP
  CCTOOLS-1004241124

 50 52  0  0  1  0  0  0  0  0999 V2000
   -1.2850   -0.3060    7.4340 P   0  0  0  0  0
   -1.8120    1.0720    7.3230 O   0  0  0  0  0
   -2.2280   -1.1630    8.4180 O   0  0  0  0  0
    0.2100   -0.2610    8.0290 O   0  0  0  0  0
   -1.2600   -1.0830    5.7860 C   0  0  0  0  0
   -0.1920   -0.1110    4.6720 P   0  0  0  0  0
   -0.7190    1.2660    4.5600 O   0  0  0  0  0
    1.3030   -0.0670    5.2670 O   0  0  0  0  0
   -0.1700   -0.7980    3.2160 O   0  0  0  0  0
    0.7860    0.1060    2.2900 P   0  0  0  0  0
    0.2440    1.4810    2.2150 O   0  0  0  0  0
    2.2650    0.1470    2.9250 O   0  0  0  0  0
    0.8550   -0.5250    0.8100 O   0  0  0  0  0
    1.7140    0.3180    0.0410 C   0  0  0  0  0
    1.8230   -0.2290   -1.3830 C   0  0  0  0  0
    0.5260   -0.2370   -2.0190 O   0  0  0  0  0
    2.6850    0.7080   -2.2580 C   0  0  0  0  0
    4.0230    0.2160   -2.3500 O   0  0  0  0  0
    1.9950    0.6700   -3.6420 C   0  0  0  0  0
    2.8880    0.1560   -4.6320 O   0  0  0  0  0
    0.7970   -0.2820   -3.4370 C   0  0  0  0  0
   -0.3640    0.1890   -4.1940 N   0  0  0  0  0
   -1.3130    1.0650   -3.7530 C   0  0  0  0  0
   -2.2000    1.2600   -4.6850 N   0  0  0  0  0
   -1.8750    0.5230   -5.7750 C   0  0  0  0  0
   -2.4580    0.3420   -7.0510 C   0  0  0  0  0
   -3.4830    0.9260   -7.3580 O   0  0  0  0  0
   -1.8460   -0.4880   -7.9230 N   0  0  0  0  0
   -0.7030   -1.1400   -7.5680 C   0  0  0  0  0
   -0.1070   -1.9820   -8.4720 N   0  0  0  0  0
   -0.1520   -0.9800   -6.3850 N   0  0  0  0  0
   -0.6970   -0.1690   -5.4720 C   0  0  0  0  0
   -2.2140   -0.7190    9.2770 H   0  0  0  0  0
    0.5150   -1.1770    8.0860 H   0  0  0  0  0
   -2.2720   -1.1130    5.3830 H   0  0  0  0  0
   -0.8710   -2.0980    5.8680 H   0  0  0  0  0
    1.6090   -0.9830    5.3240 H   0  0  0  0  0
    2.5810   -0.7650    2.9560 H   0  0  0  0  0
    1.3020    1.3270    0.0120 H   0  0  0  0  0
    2.7030    0.3420    0.4970 H   0  0  0  0  0
    2.2460   -1.2330   -1.3720 H   0  0  0  0  0
    2.6780    1.7200   -1.8540 H   0  0  0  0  0
    4.5120    0.8380   -2.9050 H   0  0  0  0  0
    1.6470    1.6640   -3.9220 H   0  0  0  0  0
    3.6420    0.7610   -4.6700 H   0  0  0  0  0
    1.0620   -1.2950   -3.7410 H   0  0  0  0  0
   -1.3250    1.5280   -2.7770 H   0  0  0  0  0
   -2.2270   -0.6280   -8.8040 H   0  0  0  0  0
    0.7080   -2.4500   -8.2350 H   0  0  0  0  0
   -0.5050   -2.1130   -9.3480 H   0  0  0  0  0
  1  2  2  0  0  0
  1  3  1  0  0  0
  1  4  1  0  0  0
  1  5  1  0  0  0
  3 33  1  0  0  0
  4 34  1  0  0  0
  5  6  1  0  0  0
  5 35  1  0  0  0
  5 36  1  0  0  0
  6  7  2  0  0  0
  6  8  1  0  0  0
  6  9  1  0  0  0
  8 37  1  0  0  0
  9 10  1  0  0  0
 10 11  2  0  0  0
 10 12  1  0  0  0
 10 13  1  0  0  0
 12 38  1  0  0  0
 13 14  1  0  0  0
 14 15  1  0  0  0
 14 39  1  0  0  0
 14 40  1  0  0  0
 15 16  1  0  0  0
 15 17  1  0  0  0
 15 41  1  0  0  0
 16 21  1  0  0  0
 17 18  1  0  0  0
 17 19  1  0  0  0
 17 42  1  0  0  0
 18 43  1  0  0  0
 19 20  1  0  0  0
 19 21  1  0  0  0
 19 44  1  0  0  0
 20 45  1  0  0  0
 21 22  1  0  0  0
 21 46  1  0  0  0
 22 23  1  0  0  0
 22 32  1  0  0  0
 23 24  2  0  0  0
 23 47  1  0  0  0
 24 25  1  0  0  0
 25 26  1  0  0  0
 25 32  2  0  0  0
 26 27  2  0  0  0
 26 28  1  0  0  0
 28 29  1  0  0  0
 28 48  1  0  0  0
 29 30  1  0  0  0
 29 31  2  0  0  0
 30 49  1  0  0  0
 30 50  1  0  0  0
 31 32  1  0  0  0
M  END
$$$$
