GCQ
  CCTOOLS-0919241039

 39 40  0  0  1  0  0  0  0  0999 V2000
   -5.8660    2.3450   -0.8310 O   0  0  0  0  0
   -5.1310    1.1310   -0.0700 P   0  0  0  0  0
   -6.2120   -0.0050    0.2950 O   0  0  0  0  0
   -4.5060    1.6350    1.1740 O   0  0  0  0  0
   -3.9970    0.5060   -1.0260 O   0  0  0  0  0
   -3.0530   -0.4050   -0.0930 P   0  0  0  0  0
   -3.7610   -1.8280    0.1600 O   0  0  0  0  0
   -2.8350    0.2750    1.2030 O   0  0  0  0  0
   -1.6360   -0.6330   -0.8240 O   0  0  0  0  0
   -0.8060   -1.3430    0.0970 C   0  0  0  0  0
    0.5630   -1.5940   -0.5390 C   0  0  0  0  0
    1.4640   -2.4030    0.4200 C   0  0  0  0  0
    1.4490   -3.7890    0.0720 O   0  0  0  0  0
    2.8750   -1.8050    0.2050 C   0  0  0  0  0
    3.7540   -2.7830   -0.2730 F   0  0  0  0  0
    1.2610   -0.3450   -0.7370 O   0  0  0  0  0
    2.6550   -0.7040   -0.8570 C   0  0  0  0  0
    3.5060    0.4540   -0.5730 N   0  0  0  0  0
    4.4740    0.8180   -1.4600 C   0  0  0  0  0
    5.2510    1.8940   -1.1900 C   0  0  0  0  0
    5.0410    2.6020    0.0110 C   0  0  0  0  0
    5.8190    3.6960    0.3140 N   0  0  0  0  0
    4.0870    2.2110    0.8450 N   0  0  0  0  0
    3.3270    1.1540    0.5630 C   0  0  0  0  0
    2.4560    0.8150    1.3460 O   0  0  0  0  0
    3.3580   -1.2480    1.3940 F   0  0  0  0  0
   -6.5360    2.6900   -0.2250 H   0  0  0  0  0
   -6.5950   -0.3060   -0.5400 H   0  0  0  0  0
   -3.8850   -2.2370   -0.7080 H   0  0  0  0  0
   -1.2720   -2.2970    0.3450 H   0  0  0  0  0
   -0.6820   -0.7530    1.0050 H   0  0  0  0  0
    0.4500   -2.1200   -1.4870 H   0  0  0  0  0
    1.1430   -2.2650    1.4530 H   0  0  0  0  0
    2.0260   -4.2410    0.7020 H   0  0  0  0  0
    2.8630   -1.0920   -1.8540 H   0  0  0  0  0
    4.6180    0.2560   -2.3710 H   0  0  0  0  0
    6.0240    2.1990   -1.8790 H   0  0  0  0  0
    5.6700    4.1840    1.1390 H   0  0  0  0  0
    6.5190    3.9770   -0.2960 H   0  0  0  0  0
  1  2  1  0  0  0
  1 27  1  0  0  0
  2  3  1  0  0  0
  2  4  2  0  0  0
  2  5  1  0  0  0
  3 28  1  0  0  0
  5  6  1  0  0  0
  6  7  1  0  0  0
  6  8  2  0  0  0
  6  9  1  0  0  0
  7 29  1  0  0  0
  9 10  1  0  0  0
 10 11  1  0  0  0
 10 30  1  0  0  0
 10 31  1  0  0  0
 11 12  1  0  0  0
 11 16  1  0  0  0
 11 32  1  0  0  0
 12 13  1  0  0  0
 12 14  1  0  0  0
 12 33  1  0  0  0
 13 34  1  0  0  0
 14 15  1  0  0  0
 14 17  1  0  0  0
 14 26  1  0  0  0
 16 17  1  0  0  0
 17 18  1  0  0  0
 17 35  1  0  0  0
 18 19  1  0  0  0
 18 24  1  0  0  0
 19 20  2  0  0  0
 19 36  1  0  0  0
 20 21  1  0  0  0
 20 37  1  0  0  0
 21 22  1  0  0  0
 21 23  2  0  0  0
 22 38  1  0  0  0
 22 39  1  0  0  0
 23 24  1  0  0  0
 24 25  2  0  0  0
M  END
$$$$
