GCS
  CCTOOLS-1004241124

 25 25  0  0  1  0  0  0  0  0999 V2000
    1.3850   -0.2470    0.6370 C   0  0  0  0  0
    0.2980    0.2190    1.6070 C   0  0  0  0  0
   -1.0690   -0.2330    1.0850 C   0  0  0  0  0
   -1.2280    0.2540   -0.3590 C   0  0  0  0  0
   -0.0260   -0.2150   -1.1810 C   0  0  0  0  0
   -0.1930    0.2400   -2.6320 C   0  0  0  0  0
    0.5370   -0.3670    2.9330 N   0  0  0  0  0
    2.6660    0.1460    1.1320 O   0  0  0  0  0
   -2.1070    0.3210    1.8950 O   0  0  0  0  0
   -2.4290   -0.2830   -0.9180 O   0  0  0  0  0
    1.1720    0.3400   -0.6450 O   0  0  0  0  0
    0.9240   -0.2020   -3.4030 O   0  0  0  0  0
    1.3490   -1.3330    0.5480 H   0  0  0  0  0
    0.3180    1.3060    1.6810 H   0  0  0  0  0
   -1.1270   -1.3210    1.1120 H   0  0  0  0  0
   -1.2750    1.3430   -0.3720 H   0  0  0  0  0
    0.0320   -1.3030   -1.1480 H   0  0  0  0  0
   -1.1090   -0.1830   -3.0430 H   0  0  0  0  0
   -0.2500    1.3280   -2.6660 H   0  0  0  0  0
    1.4450   -0.0450    3.2330 H   0  0  0  0  0
   -0.1380    0.0440    3.5580 H   0  0  0  0  0
    3.3210   -0.1660    0.4930 H   0  0  0  0  0
   -1.9690   -0.0100    2.7930 H   0  0  0  0  0
   -2.4850    0.0440   -1.8260 H   0  0  0  0  0
    0.7790    0.1050   -4.3080 H   0  0  0  0  0
  1  2  1  0  0  0
  1  8  1  0  0  0
  1 11  1  0  0  0
  1 13  1  0  0  0
  2  3  1  0  0  0
  2  7  1  0  0  0
  2 14  1  0  0  0
  3  4  1  0  0  0
  3  9  1  0  0  0
  3 15  1  0  0  0
  4  5  1  0  0  0
  4 10  1  0  0  0
  4 16  1  0  0  0
  5  6  1  0  0  0
  5 11  1  0  0  0
  5 17  1  0  0  0
  6 12  1  0  0  0
  6 18  1  0  0  0
  6 19  1  0  0  0
  7 20  1  0  0  0
  7 21  1  0  0  0
  8 22  1  0  0  0
  9 23  1  0  0  0
 10 24  1  0  0  0
 12 25  1  0  0  0
M  END
$$$$
