GDL
  CCTOOLS-0919241040

 28 28  0  0  1  0  0  0  0  0999 V2000
    1.1480   -0.1440    0.1400 C   0  0  0  0  0
   -0.1630    0.1900    0.8150 C   0  0  0  0  0
   -1.3070   -0.3170   -0.0700 C   0  0  0  0  0
   -1.1360    0.2480   -1.4830 C   0  0  0  0  0
    0.1940   -0.2360   -2.0670 C   0  0  0  0  0
    0.4100    0.3970   -3.4430 C   0  0  0  0  0
    0.2270    0.1750    3.2200 C   0  0  0  0  0
    0.1620   -0.4980    4.5670 C   0  0  0  0  0
   -0.2260   -0.4640    2.1250 N   0  0  0  0  0
    2.0520   -0.6630    0.7520 O   0  0  0  0  0
   -2.5580    0.1140    0.4700 O   0  0  0  0  0
   -2.2120   -0.1990   -2.3090 O   0  0  0  0  0
    1.2730    0.1560   -1.1710 O   0  0  0  0  0
    1.6520   -0.0550   -3.9860 O   0  0  0  0  0
    0.6870    1.2930    3.1230 O   0  0  0  0  0
   -0.2470    1.2690    0.9410 H   0  0  0  0  0
   -1.2830   -1.4060   -0.1080 H   0  0  0  0  0
   -1.1390    1.3370   -1.4410 H   0  0  0  0  0
    0.1760   -1.3210   -2.1640 H   0  0  0  0  0
   -0.4030    0.1090   -4.1080 H   0  0  0  0  0
    0.4320    1.4830   -3.3430 H   0  0  0  0  0
    0.5720    0.1680    5.3260 H   0  0  0  0  0
   -0.8740   -0.7290    4.8080 H   0  0  0  0  0
    0.7440   -1.4190    4.5410 H   0  0  0  0  0
   -0.5940   -1.3580    2.2030 H   0  0  0  0  0
   -2.6220   -0.2590    1.3590 H   0  0  0  0  0
   -2.0660    0.1780   -3.1880 H   0  0  0  0  0
    1.7490    0.3660   -4.8500 H   0  0  0  0  0
  1  2  1  0  0  0
  1 10  2  0  0  0
  1 13  1  0  0  0
  2  3  1  0  0  0
  2  9  1  0  0  0
  2 16  1  0  0  0
  3  4  1  0  0  0
  3 11  1  0  0  0
  3 17  1  0  0  0
  4  5  1  0  0  0
  4 12  1  0  0  0
  4 18  1  0  0  0
  5  6  1  0  0  0
  5 13  1  0  0  0
  5 19  1  0  0  0
  6 14  1  0  0  0
  6 20  1  0  0  0
  6 21  1  0  0  0
  7  8  1  0  0  0
  7  9  1  0  0  0
  7 15  2  0  0  0
  8 22  1  0  0  0
  8 23  1  0  0  0
  8 24  1  0  0  0
  9 25  1  0  0  0
 11 26  1  0  0  0
 12 27  1  0  0  0
 14 28  1  0  0  0
M  END
$$$$
