GDU
  CCTOOLS-0919241040

 60 62  0  0  1  0  0  0  0  0999 V2000
    0.8630   -0.6690    5.7830 N   0  0  0  0  0
    1.5920    0.3780    5.3580 C   0  0  0  0  0
    2.8720    0.5320    5.7450 N   0  0  0  0  0
    3.4490   -0.3710    6.5610 C   0  0  0  0  0
    2.6950   -1.4820    7.0120 C   0  0  0  0  0
    1.4120   -1.6100    6.6120 C   0  0  0  0  0
    1.0850    1.2010    4.6220 O   0  0  0  0  0
    4.6090   -0.2350    6.9080 O   0  0  0  0  0
   -0.5280   -0.8090    5.3490 C   0  0  0  0  0
   -1.3440    0.4600    5.7050 C   0  0  0  0  0
   -1.8540    0.3810    7.0380 O   0  0  0  0  0
   -2.4960    0.4070    4.6680 C   0  0  0  0  0
   -1.9500   -0.4980    3.5480 C   0  0  0  0  0
   -0.6080   -0.8680    3.9090 O   0  0  0  0  0
   -3.6690   -0.1620    5.2530 O   0  0  0  0  0
   -1.9400    0.2630    2.2210 C   0  0  0  0  0
   -1.4250   -0.5810    1.1900 O   0  0  0  0  0
   -1.4440    0.2790   -0.1690 P   0  0  0  0  0
   -2.8320    0.6920   -0.4730 O   0  0  0  0  0
   -0.5220    1.5870    0.0100 O   0  0  0  0  0
   -0.8740   -0.6160   -1.3800 O   0  0  0  0  0
   -0.9210    0.3020   -2.7010 P   0  0  0  0  0
   -2.3170    0.7150   -2.9650 O   0  0  0  0  0
   -0.0080    1.6100   -2.4780 O   0  0  0  0  0
   -0.3610   -0.5340   -3.9570 O   0  0  0  0  0
   -0.4280    0.3290   -5.0930 C   0  0  0  0  0
   -0.6560   -0.5060   -6.3540 C   0  0  0  0  0
    0.4930   -1.5080   -6.5030 C   0  0  0  0  0
    1.8200   -0.7420   -6.4590 C   0  0  0  0  0
    1.8610    0.1100   -5.1880 C   0  0  0  0  0
    3.1970    0.8530   -5.1170 C   0  0  0  0  0
   -1.8950   -1.2090   -6.2450 O   0  0  0  0  0
    0.3730   -2.1940   -7.7510 O   0  0  0  0  0
    1.9240    0.1000   -7.6080 O   0  0  0  0  0
    0.7930    1.0560   -5.2080 O   0  0  0  0  0
    3.2370    1.6470   -3.9300 O   0  0  0  0  0
    3.3820    1.2960    5.4320 H   0  0  0  0  0
    3.1410   -2.2160    7.6660 H   0  0  0  0  0
    0.8210   -2.4500    6.9460 H   0  0  0  0  0
   -0.9810   -1.6940    5.7950 H   0  0  0  0  0
   -0.7410    1.3590    5.5730 H   0  0  0  0  0
   -2.3490    1.1970    7.1960 H   0  0  0  0  0
   -2.7090    1.4040    4.2830 H   0  0  0  0  0
   -2.5680   -1.3910    3.4580 H   0  0  0  0  0
   -3.9270    0.4170    5.9830 H   0  0  0  0  0
   -1.3100    1.1470    2.3140 H   0  0  0  0  0
   -2.9560    0.5660    1.9690 H   0  0  0  0  0
    0.3700    1.2740    0.2060 H   0  0  0  0  0
    0.8910    1.2970   -2.3090 H   0  0  0  0  0
   -1.2550    1.0290   -4.9670 H   0  0  0  0  0
   -0.6840    0.1480   -7.2250 H   0  0  0  0  0
    0.4580   -2.2290   -5.6860 H   0  0  0  0  0
    2.6490   -1.4490   -6.4480 H   0  0  0  0  0
    1.7570   -0.5340   -4.3160 H   0  0  0  0  0
    3.3010    1.4980   -5.9890 H   0  0  0  0  0
    4.0130    0.1310   -5.0990 H   0  0  0  0  0
   -2.5870   -0.5410   -6.1460 H   0  0  0  0  0
   -0.4780   -2.6500   -7.7390 H   0  0  0  0  0
    1.8880   -0.4770   -8.3820 H   0  0  0  0  0
    4.0930    2.0970   -3.9230 H   0  0  0  0  0
  1  2  1  0  0  0
  1  6  1  0  0  0
  1  9  1  0  0  0
  2  3  1  0  0  0
  2  7  2  0  0  0
  3  4  1  0  0  0
  3 37  1  0  0  0
  4  5  1  0  0  0
  4  8  2  0  0  0
  5  6  2  0  0  0
  5 38  1  0  0  0
  6 39  1  0  0  0
  9 10  1  0  0  0
  9 14  1  0  0  0
  9 40  1  0  0  0
 10 11  1  0  0  0
 10 12  1  0  0  0
 10 41  1  0  0  0
 11 42  1  0  0  0
 12 13  1  0  0  0
 12 15  1  0  0  0
 12 43  1  0  0  0
 13 14  1  0  0  0
 13 16  1  0  0  0
 13 44  1  0  0  0
 15 45  1  0  0  0
 16 17  1  0  0  0
 16 46  1  0  0  0
 16 47  1  0  0  0
 17 18  1  0  0  0
 18 19  2  0  0  0
 18 20  1  0  0  0
 18 21  1  0  0  0
 20 48  1  0  0  0
 21 22  1  0  0  0
 22 23  2  0  0  0
 22 24  1  0  0  0
 22 25  1  0  0  0
 24 49  1  0  0  0
 25 26  1  0  0  0
 26 27  1  0  0  0
 26 35  1  0  0  0
 26 50  1  0  0  0
 27 28  1  0  0  0
 27 32  1  0  0  0
 27 51  1  0  0  0
 28 29  1  0  0  0
 28 33  1  0  0  0
 28 52  1  0  0  0
 29 30  1  0  0  0
 29 34  1  0  0  0
 29 53  1  0  0  0
 30 31  1  0  0  0
 30 35  1  0  0  0
 30 54  1  0  0  0
 31 36  1  0  0  0
 31 55  1  0  0  0
 31 56  1  0  0  0
 32 57  1  0  0  0
 33 58  1  0  0  0
 34 59  1  0  0  0
 36 60  1  0  0  0
M  END
$$$$
