GGA
  CCTOOLS-0919241040

 70 69  0  0  1  0  0  0  0  0999 V2000
   -7.3840    2.4770   -3.3700 C   0  0  0  0  0
   -8.1540    2.4330   -4.3200 O   0  0  0  0  0
   -7.7030    1.9970   -2.1400 O   0  0  0  0  0
   -6.0060    3.1080   -3.3910 C   0  0  0  0  0
   -6.0980    4.2670   -4.2420 N   0  0  0  0  0
   -4.9680    2.0990   -3.8890 C   0  0  0  0  0
   -4.8550    0.8560   -3.0050 C   0  0  0  0  0
   -3.8000   -0.1320   -3.4740 C   0  0  0  0  0
   -3.1180    0.0390   -4.4810 O   0  0  0  0  0
   -3.7300   -1.2450   -2.6450 N   0  0  0  0  0
   -2.8290   -2.3420   -2.8850 C   0  0  0  0  0
   -3.4760   -3.4110   -3.7520 C   0  0  0  0  0
   -2.4150   -2.9130   -1.5360 C   0  0  0  0  0
   -3.1670   -2.9490   -0.5640 O   0  0  0  0  0
   -1.1210   -3.4140   -1.5570 N   0  0  0  0  0
   -0.4990   -4.0480   -0.4160 C   0  0  0  0  0
   -0.9070   -5.7780   -0.4810 P   0  0  0  0  0
   -0.2380   -6.4320   -1.9940 C   0  0  0  0  0
   -0.5090   -7.9170   -2.1920 C   0  0  0  0  0
    0.0890   -8.4450   -3.4980 C   0  0  0  0  0
   -0.1650   -9.9440   -3.6520 C   0  0  0  0  0
    0.4180  -10.4310   -4.8970 N   0  0  0  0  0
    0.1930  -11.8610   -5.0520 C   0  0  0  0  0
    0.8040  -12.3900   -6.3440 C   0  0  0  0  0
    0.5950  -13.8990   -6.5060 C   0  0  0  0  0
    1.1880  -14.4360   -7.8050 C   0  0  0  0  0
    1.0100  -15.8540   -7.9450 N   0  0  0  0  0
   -2.3630   -6.0760   -0.2750 O   0  0  0  0  0
    0.0530   -6.4050    0.6580 O   0  0  0  0  0
    0.0620   -6.2610    2.2660 P   0  0  0  0  0
    1.1990   -7.3120    2.7300 O   0  0  0  0  0
   -1.3170   -6.9810    2.7050 O   0  0  0  0  0
    0.2390   -4.8600    2.7730 O   0  0  0  0  0
   -8.6000    1.6080   -2.0620 H   0  0  0  0  0
   -5.7680    3.4860   -2.3910 H   0  0  0  0  0
   -5.2530    4.6670   -4.6160 H   0  0  0  0  0
   -6.9660    4.7740   -4.2840 H   0  0  0  0  0
   -5.2320    1.7780   -4.9050 H   0  0  0  0  0
   -3.9860    2.5840   -3.9680 H   0  0  0  0  0
   -4.6530    1.1370   -1.9650 H   0  0  0  0  0
   -5.8160    0.3260   -3.0190 H   0  0  0  0  0
   -4.3430   -1.2870   -1.8330 H   0  0  0  0  0
   -1.9510   -1.9250   -3.3910 H   0  0  0  0  0
   -4.3540   -3.8440   -3.2590 H   0  0  0  0  0
   -2.7780   -4.2280   -3.9620 H   0  0  0  0  0
   -3.8070   -2.9900   -4.7080 H   0  0  0  0  0
   -0.5850   -3.3310   -2.4160 H   0  0  0  0  0
    0.5830   -3.8900   -0.4340 H   0  0  0  0  0
   -0.9110   -3.5850    0.4840 H   0  0  0  0  0
    0.8440   -6.2640   -1.9680 H   0  0  0  0  0
   -0.6380   -5.8520   -2.8320 H   0  0  0  0  0
   -1.5910   -8.0910   -2.1870 H   0  0  0  0  0
   -0.0840   -8.4710   -1.3460 H   0  0  0  0  0
   -0.3480   -7.9100   -4.3490 H   0  0  0  0  0
    1.1680   -8.2470   -3.5110 H   0  0  0  0  0
   -1.2420  -10.1450   -3.6610 H   0  0  0  0  0
    0.2700  -10.4920   -2.8090 H   0  0  0  0  0
   -0.0060   -9.9360   -5.6810 H   0  0  0  0  0
   -0.8860  -12.0430   -5.0210 H   0  0  0  0  0
    0.6470  -12.3620   -4.1920 H   0  0  0  0  0
    1.8780  -12.1690   -6.3430 H   0  0  0  0  0
    0.3620  -11.8590   -7.1960 H   0  0  0  0  0
   -0.4750  -14.1340   -6.4660 H   0  0  0  0  0
    1.0720  -14.4190   -5.6650 H   0  0  0  0  0
    2.2650  -14.2450   -7.8320 H   0  0  0  0  0
    0.7350  -13.9530   -8.6770 H   0  0  0  0  0
    1.2810  -16.4620   -7.1870 H   0  0  0  0  0
    0.8120  -16.2390   -8.8560 H   0  0  0  0  0
    1.4480   -7.3550    3.6780 H   0  0  0  0  0
   -1.5900   -6.9520    3.6470 H   0  0  0  0  0
  1  4  1  0  0  0
  1  2  2  0  0  0
  1  3  1  0  0  0
  3 34  1  0  0  0
  4  5  1  0  0  0
  4  6  1  0  0  0
  4 35  1  0  0  0
  5 36  1  0  0  0
  5 37  1  0  0  0
  6  7  1  0  0  0
  6 38  1  0  0  0
  6 39  1  0  0  0
  7  8  1  0  0  0
  7 40  1  0  0  0
  7 41  1  0  0  0
  8 10  1  0  0  0
  8  9  2  0  0  0
 10 11  1  0  0  0
 10 42  1  0  0  0
 11 13  1  0  0  0
 11 12  1  0  0  0
 11 43  1  0  0  0
 12 44  1  0  0  0
 12 45  1  0  0  0
 12 46  1  0  0  0
 13 14  2  0  0  0
 13 15  1  0  0  0
 15 16  1  0  0  0
 15 47  1  0  0  0
 16 17  1  0  0  0
 16 48  1  0  0  0
 16 49  1  0  0  0
 17 18  1  0  0  0
 17 29  1  0  0  0
 17 28  2  0  0  0
 18 19  1  0  0  0
 18 50  1  0  0  0
 18 51  1  0  0  0
 19 20  1  0  0  0
 19 52  1  0  0  0
 19 53  1  0  0  0
 20 21  1  0  0  0
 20 54  1  0  0  0
 20 55  1  0  0  0
 21 22  1  0  0  0
 21 56  1  0  0  0
 21 57  1  0  0  0
 22 23  1  0  0  0
 22 58  1  0  0  0
 23 24  1  0  0  0
 23 59  1  0  0  0
 23 60  1  0  0  0
 24 25  1  0  0  0
 24 61  1  0  0  0
 24 62  1  0  0  0
 25 26  1  0  0  0
 25 63  1  0  0  0
 25 64  1  0  0  0
 26 27  1  0  0  0
 26 65  1  0  0  0
 26 66  1  0  0  0
 27 67  1  0  0  0
 27 68  1  0  0  0
 29 30  1  0  0  0
 30 33  2  0  0  0
 30 31  1  0  0  0
 30 32  1  0  0  0
 31 69  1  0  0  0
 32 70  1  0  0  0
M  END
$$$$
