GGD
  CCTOOLS-0919241040

161162  0  0  1  0  0  0  0  0999 V2000
   -7.2680    7.3590   -6.0380 C   0  0  0  0  0
   -8.0690    8.5540   -5.5140 C   0  0  0  0  0
   -8.9540    9.1370   -6.6150 C   0  0  0  0  0
   -8.1470    9.4020   -7.8860 C   0  0  0  0  0
   -7.3870    8.1340   -8.2920 C   0  0  0  0  0
   -6.4990    8.3390   -9.5130 C   0  0  0  0  0
   -6.3720    6.8980   -5.0380 O   0  0  0  0  0
   -8.8900    8.1080   -4.4350 O   0  0  0  0  0
   -7.2260   10.4630   -7.6270 O   0  0  0  0  0
   -6.5420    7.7080   -7.2150 O   0  0  0  0  0
   -5.8350    7.1210   -9.7990 O   0  0  0  0  0
  -10.8620   11.3140  -10.6810 O   0  0  0  0  0
  -10.8360   10.5400   -6.7190 C   0  0  0  0  0
  -11.6830   11.3160   -5.7100 C   0  0  0  0  0
  -13.0380   11.7040   -6.3020 C   0  0  0  0  0
  -12.8760   12.3420   -7.6820 C   0  0  0  0  0
  -11.9760   11.4830   -8.5750 C   0  0  0  0  0
  -11.7050   12.1570   -9.9170 C   0  0  0  0  0
   -9.5510   10.3430   -6.1480 O   0  0  0  0  0
  -11.8900   10.5180   -4.5450 O   0  0  0  0  0
  -13.6900   12.6260   -5.4280 O   0  0  0  0  0
  -14.1570   12.4750   -8.2920 O   0  0  0  0  0
  -10.7160   11.2710   -7.9370 O   0  0  0  0  0
   -5.6110    5.7850   -5.4950 C   0  0  0  0  0
   -4.6290    5.3500   -4.4120 C   0  0  0  0  0
   -5.3660    5.0110   -3.2340 O   0  0  0  0  0
   -6.2680    3.9990   -3.3770 C   0  0  0  0  0
   -6.1780    3.0570   -4.1550 O   0  0  0  0  0
   -3.6610    6.4700   -4.0560 C   0  0  0  0  0
   -2.7900    6.0180   -3.0250 O   0  0  0  0  0
   -1.8580    6.9200   -2.5950 C   0  0  0  0  0
   -1.7130    8.0600   -3.0140 O   0  0  0  0  0
   -7.4150    4.1860   -2.4130 C   0  0  0  0  0
   -8.4270    3.0480   -2.5170 C   0  0  0  0  0
   -9.5860    3.2150   -1.5320 C   0  0  0  0  0
  -10.5690    2.0460   -1.6210 C   0  0  0  0  0
  -11.7380    2.2360   -0.6540 C   0  0  0  0  0
  -12.7380    1.0810   -0.7550 C   0  0  0  0  0
  -13.9120    1.2200    0.2210 C   0  0  0  0  0
  -14.9850    0.1330    0.0930 C   0  0  0  0  0
  -15.5820    0.0520   -1.2830 C   0  0  0  0  0
  -15.6700   -1.0300   -2.0710 C   0  0  0  0  0
  -16.2690   -1.1010   -3.4460 C   0  0  0  0  0
   -1.0040    6.3110   -1.5090 C   0  0  0  0  0
    0.0250    7.2980   -0.9650 C   0  0  0  0  0
    0.9360    6.6630    0.0910 C   0  0  0  0  0
    1.9760    7.6350    0.6580 C   0  0  0  0  0
    2.8780    7.0710    1.7610 C   0  0  0  0  0
    3.8610    8.1010    2.3270 C   0  0  0  0  0
    4.7640    7.5320    3.4270 C   0  0  0  0  0
    3.9950    6.9410    4.5750 C   0  0  0  0  0
    4.0550    5.6470    4.9220 C   0  0  0  0  0
    3.3040    5.0590    6.0820 C   0  0  0  0  0
    2.3560    3.9220    5.6820 C   0  0  0  0  0
    1.2670    4.3590    4.6950 C   0  0  0  0  0
    0.3690    3.1830    4.3040 C   0  0  0  0  0
   -0.6830    3.5420    3.2500 C   0  0  0  0  0
  -15.2690   -1.6350   -4.4710 C   0  0  0  0  0
  -14.0440   -0.7330   -4.6570 C   0  0  0  0  0
  -14.3190    0.6770   -5.1910 C   0  0  0  0  0
  -13.0510    1.5000   -5.4310 C   0  0  0  0  0
  -13.3850    2.8620   -6.0440 C   0  0  0  0  0
  -12.1540    3.7410   -6.2740 C   0  0  0  0  0
  -12.4870    5.1030   -6.8640 C   0  0  0  0  0
   -1.5570    2.3850    2.7550 C   0  0  0  0  0
   -2.5430    2.7910    1.6600 C   0  0  0  0  0
   -3.4460    1.6320    1.2670 C   0  0  0  0  0
   -7.9300    6.5150   -6.2630 H   0  0  0  0  0
   -7.4000    9.3240   -5.1110 H   0  0  0  0  0
   -9.7730    8.4390   -6.8290 H   0  0  0  0  0
   -8.8140    9.7400   -8.6870 H   0  0  0  0  0
   -8.0990    7.3300   -8.5170 H   0  0  0  0  0
   -5.7580    9.1130   -9.3110 H   0  0  0  0  0
   -7.1060    8.6280  -10.3720 H   0  0  0  0  0
   -9.5680    8.7890   -4.3070 H   0  0  0  0  0
   -7.3510   11.1120   -8.3350 H   0  0  0  0  0
   -4.8880    7.3250   -9.8780 H   0  0  0  0  0
  -10.4270   11.8740  -11.3470 H   0  0  0  0  0
  -11.2640    9.5490   -6.9140 H   0  0  0  0  0
  -11.1470   12.2140   -5.3780 H   0  0  0  0  0
  -13.6980   10.8300   -6.3620 H   0  0  0  0  0
  -12.4540   13.3490   -7.5750 H   0  0  0  0  0
  -12.4480   10.5130   -8.7790 H   0  0  0  0  0
  -11.2100   13.1150   -9.7590 H   0  0  0  0  0
  -12.6420   12.3110  -10.4520 H   0  0  0  0  0
  -12.3850    9.7360   -4.8330 H   0  0  0  0  0
  -14.6420   12.4900   -5.5490 H   0  0  0  0  0
  -14.0470   12.2250   -9.2230 H   0  0  0  0  0
   -6.3070    4.9810   -5.7530 H   0  0  0  0  0
   -5.0840    6.1010   -6.4010 H   0  0  0  0  0
   -4.0820    4.4490   -4.7130 H   0  0  0  0  0
   -4.1940    7.3510   -3.6830 H   0  0  0  0  0
   -3.0480    6.7510   -4.9180 H   0  0  0  0  0
   -7.8900    5.1420   -2.6590 H   0  0  0  0  0
   -7.0380    4.2780   -1.3880 H   0  0  0  0  0
   -8.8240    3.0240   -3.5390 H   0  0  0  0  0
   -7.9300    2.0860   -2.3420 H   0  0  0  0  0
  -10.1110    4.1560   -1.7370 H   0  0  0  0  0
   -9.1980    3.2770   -0.5090 H   0  0  0  0  0
  -10.0440    1.1120   -1.3870 H   0  0  0  0  0
  -10.9500    1.9570   -2.6460 H   0  0  0  0  0
  -12.2470    3.1820   -0.8770 H   0  0  0  0  0
  -11.3510    2.3180    0.3660 H   0  0  0  0  0
  -12.2260    0.1250   -0.5990 H   0  0  0  0  0
  -13.1410    1.0570   -1.7750 H   0  0  0  0  0
  -13.5260    1.2160    1.2480 H   0  0  0  0  0
  -14.3760    2.2030    0.0700 H   0  0  0  0  0
  -14.5980   -0.8330    0.4290 H   0  0  0  0  0
  -15.8010    0.3760    0.7860 H   0  0  0  0  0
  -16.0230    0.9750   -1.6550 H   0  0  0  0  0
  -15.2880   -1.9700   -1.6770 H   0  0  0  0  0
  -16.6450   -0.1210   -3.7470 H   0  0  0  0  0
  -17.1470   -1.7580   -3.4050 H   0  0  0  0  0
   -0.5060    5.4280   -1.9250 H   0  0  0  0  0
   -1.6610    5.9510   -0.7080 H   0  0  0  0  0
   -0.4890    8.1690   -0.5450 H   0  0  0  0  0
    0.6410    7.6580   -1.7980 H   0  0  0  0  0
    1.4720    5.8200   -0.3630 H   0  0  0  0  0
    0.3390    6.2420    0.9070 H   0  0  0  0  0
    2.6060    7.9890   -0.1680 H   0  0  0  0  0
    1.4590    8.5200    1.0510 H   0  0  0  0  0
    2.2340    6.7090    2.5720 H   0  0  0  0  0
    3.4160    6.1940    1.3840 H   0  0  0  0  0
    4.4850    8.5130    1.5260 H   0  0  0  0  0
    3.2910    8.9380    2.7500 H   0  0  0  0  0
    5.4270    8.3160    3.8120 H   0  0  0  0  0
    5.4150    6.7700    2.9790 H   0  0  0  0  0
    3.3730    7.6180    5.1540 H   0  0  0  0  0
    4.6940    4.9760    4.3550 H   0  0  0  0  0
    2.7150    5.8370    6.5840 H   0  0  0  0  0
    4.0270    4.6940    6.8200 H   0  0  0  0  0
    2.9550    3.1270    5.2220 H   0  0  0  0  0
    1.8910    3.4910    6.5770 H   0  0  0  0  0
    0.6610    5.1500    5.1470 H   0  0  0  0  0
    1.7340    4.7770    3.7950 H   0  0  0  0  0
   -0.1180    2.7730    5.1960 H   0  0  0  0  0
    0.9920    2.3760    3.8980 H   0  0  0  0  0
   -1.3400    4.3210    3.6570 H   0  0  0  0  0
   -0.1710    3.9910    2.3900 H   0  0  0  0  0
  -14.9450   -2.6440   -4.1890 H   0  0  0  0  0
  -15.7660   -1.7380   -5.4450 H   0  0  0  0  0
  -13.5310   -0.6500   -3.6910 H   0  0  0  0  0
  -13.3400   -1.2280   -5.3370 H   0  0  0  0  0
  -14.9840    1.2140   -4.5050 H   0  0  0  0  0
  -14.8700    0.5790   -6.1360 H   0  0  0  0  0
  -12.3760    0.9530   -6.1000 H   0  0  0  0  0
  -12.5260    1.6420   -4.4830 H   0  0  0  0  0
  -13.8800    2.7040   -7.0100 H   0  0  0  0  0
  -14.1000    3.3940   -5.4060 H   0  0  0  0  0
  -11.4810    3.2200   -6.9650 H   0  0  0  0  0
  -11.6050    3.8720   -5.3340 H   0  0  0  0  0
  -13.0710    5.7130   -6.1700 H   0  0  0  0  0
  -13.0530    4.9990   -7.7950 H   0  0  0  0  0
  -11.5650    5.6490   -7.0890 H   0  0  0  0  0
   -0.9250    1.5630    2.4000 H   0  0  0  0  0
   -2.1160    1.9920    3.6130 H   0  0  0  0  0
   -2.0030    3.1290    0.7700 H   0  0  0  0  0
   -3.1610    3.6280    2.0060 H   0  0  0  0  0
   -4.0350    1.2850    2.1210 H   0  0  0  0  0
   -4.1390    1.9430    0.4790 H   0  0  0  0  0
   -2.8580    0.7890    0.8890 H   0  0  0  0  0
  1  2  1  0  0  0
  1  7  1  0  0  0
  1 10  1  0  0  0
  1 68  1  0  0  0
  2  3  1  0  0  0
  2  8  1  0  0  0
  2 69  1  0  0  0
  3  4  1  0  0  0
  3 19  1  0  0  0
  3 70  1  0  0  0
  4  5  1  0  0  0
  4  9  1  0  0  0
  4 71  1  0  0  0
  5  6  1  0  0  0
  5 10  1  0  0  0
  5 72  1  0  0  0
  6 11  1  0  0  0
  6 73  1  0  0  0
  6 74  1  0  0  0
  7 24  1  0  0  0
  8 75  1  0  0  0
  9 76  1  0  0  0
 11 77  1  0  0  0
 12 18  1  0  0  0
 12 78  1  0  0  0
 13 14  1  0  0  0
 13 19  1  0  0  0
 13 23  1  0  0  0
 13 79  1  0  0  0
 14 15  1  0  0  0
 14 20  1  0  0  0
 14 80  1  0  0  0
 15 16  1  0  0  0
 15 21  1  0  0  0
 15 81  1  0  0  0
 16 17  1  0  0  0
 16 22  1  0  0  0
 16 82  1  0  0  0
 17 18  1  0  0  0
 17 23  1  0  0  0
 17 83  1  0  0  0
 18 84  1  0  0  0
 18 85  1  0  0  0
 20 86  1  0  0  0
 21 87  1  0  0  0
 22 88  1  0  0  0
 24 25  1  0  0  0
 24 89  1  0  0  0
 24 90  1  0  0  0
 25 26  1  0  0  0
 25 29  1  0  0  0
 25 91  1  0  0  0
 26 27  1  0  0  0
 27 28  2  0  0  0
 27 33  1  0  0  0
 29 30  1  0  0  0
 29 92  1  0  0  0
 29 93  1  0  0  0
 30 31  1  0  0  0
 31 32  2  0  0  0
 31 44  1  0  0  0
 33 34  1  0  0  0
 33 94  1  0  0  0
 33 95  1  0  0  0
 34 35  1  0  0  0
 34 96  1  0  0  0
 34 97  1  0  0  0
 35 36  1  0  0  0
 35 98  1  0  0  0
 35 99  1  0  0  0
 36 37  1  0  0  0
 36100  1  0  0  0
 36101  1  0  0  0
 37 38  1  0  0  0
 37102  1  0  0  0
 37103  1  0  0  0
 38 39  1  0  0  0
 38104  1  0  0  0
 38105  1  0  0  0
 39 40  1  0  0  0
 39106  1  0  0  0
 39107  1  0  0  0
 40 41  1  0  0  0
 40108  1  0  0  0
 40109  1  0  0  0
 41 42  2  0  0  0
 41110  1  0  0  0
 42 43  1  0  0  0
 42111  1  0  0  0
 43 58  1  0  0  0
 43112  1  0  0  0
 43113  1  0  0  0
 44 45  1  0  0  0
 44114  1  0  0  0
 44115  1  0  0  0
 45 46  1  0  0  0
 45116  1  0  0  0
 45117  1  0  0  0
 46 47  1  0  0  0
 46118  1  0  0  0
 46119  1  0  0  0
 47 48  1  0  0  0
 47120  1  0  0  0
 47121  1  0  0  0
 48 49  1  0  0  0
 48122  1  0  0  0
 48123  1  0  0  0
 49 50  1  0  0  0
 49124  1  0  0  0
 49125  1  0  0  0
 50 51  1  0  0  0
 50126  1  0  0  0
 50127  1  0  0  0
 51 52  2  0  0  0
 51128  1  0  0  0
 52 53  1  0  0  0
 52129  1  0  0  0
 53 54  1  0  0  0
 53130  1  0  0  0
 53131  1  0  0  0
 54 55  1  0  0  0
 54132  1  0  0  0
 54133  1  0  0  0
 55 56  1  0  0  0
 55134  1  0  0  0
 55135  1  0  0  0
 56 57  1  0  0  0
 56136  1  0  0  0
 56137  1  0  0  0
 57 65  1  0  0  0
 57138  1  0  0  0
 57139  1  0  0  0
 58 59  1  0  0  0
 58140  1  0  0  0
 58141  1  0  0  0
 59 60  1  0  0  0
 59142  1  0  0  0
 59143  1  0  0  0
 60 61  1  0  0  0
 60144  1  0  0  0
 60145  1  0  0  0
 61 62  1  0  0  0
 61146  1  0  0  0
 61147  1  0  0  0
 62 63  1  0  0  0
 62148  1  0  0  0
 62149  1  0  0  0
 63 64  1  0  0  0
 63150  1  0  0  0
 63151  1  0  0  0
 64152  1  0  0  0
 64153  1  0  0  0
 64154  1  0  0  0
 65 66  1  0  0  0
 65155  1  0  0  0
 65156  1  0  0  0
 66 67  1  0  0  0
 66157  1  0  0  0
 66158  1  0  0  0
 67159  1  0  0  0
 67160  1  0  0  0
 67161  1  0  0  0
M  END
$$$$
