GHP
  CCTOOLS-1004241124

 21 21  0  0  1  0  0  0  0  0999 V2000
   -1.8890    1.5670    1.0560 N   0  0  0  0  0
   -1.5080    0.1690    0.8140 C   0  0  0  0  0
   -2.3200   -0.3820   -0.3300 C   0  0  0  0  0
   -2.8510    0.3710   -1.1110 O   0  0  0  0  0
   -2.4530   -1.7090   -0.4800 O   0  0  0  0  0
   -0.0430    0.1000    0.4700 C   0  0  0  0  0
    0.7360   -0.9260    0.9720 C   0  0  0  0  0
    2.0800   -0.9920    0.6580 C   0  0  0  0  0
    2.6470   -0.0280   -0.1630 C   0  0  0  0  0
    3.9690   -0.0900   -0.4740 O   0  0  0  0  0
    1.8630    1.0000   -0.6660 C   0  0  0  0  0
    0.5190    1.0590   -0.3530 C   0  0  0  0  0
   -1.7220    2.1340    0.2380 H   0  0  0  0  0
   -2.8510    1.6350    1.3510 H   0  0  0  0  0
   -1.6990   -0.4190    1.7120 H   0  0  0  0  0
   -2.9830   -2.0150   -1.2290 H   0  0  0  0  0
    0.2940   -1.6760    1.6110 H   0  0  0  0  0
    2.6880   -1.7930    1.0510 H   0  0  0  0  0
    4.1610   -0.6000   -1.2720 H   0  0  0  0  0
    2.3030    1.7520   -1.3050 H   0  0  0  0  0
   -0.0930    1.8560   -0.7490 H   0  0  0  0  0
  1  2  1  0  0  0
  1 13  1  0  0  0
  1 14  1  0  0  0
  2  3  1  0  0  0
  2  6  1  0  0  0
  2 15  1  0  0  0
  3  4  2  0  0  0
  3  5  1  0  0  0
  5 16  1  0  0  0
  6  7  2  0  0  0
  6 12  1  0  0  0
  7  8  1  0  0  0
  7 17  1  0  0  0
  8  9  2  0  0  0
  8 18  1  0  0  0
  9 10  1  0  0  0
  9 11  1  0  0  0
 10 19  1  0  0  0
 11 12  2  0  0  0
 11 20  1  0  0  0
 12 21  1  0  0  0
M  END
$$$$
