GKD
  CCTOOLS-0919241041

 62 65  0  0  1  0  0  0  0  0999 V2000
   -9.8480    0.8910   -1.7730 N   0  0  0  0  0
   -8.9940   -0.0220   -1.2080 C   0  0  0  0  0
   -9.4490   -1.2800   -0.9470 N   0  0  0  0  0
   -7.7620    0.3430   -0.9310 N   0  0  0  0  0
   -6.8950   -0.5140   -0.3800 C   0  0  0  0  0
   -7.3000   -1.8220   -0.0920 C   0  0  0  0  0
   -8.6280   -2.2020   -0.3960 C   0  0  0  0  0
   -9.0240   -3.3310   -0.1630 O   0  0  0  0  0
   -6.2370   -2.4620    0.4520 N   0  0  0  0  0
   -5.2270   -1.6440    0.5150 C   0  0  0  0  0
   -5.5860   -0.4270    0.0120 N   0  0  0  0  0
   -4.7280    0.7560   -0.0910 C   0  0  0  0  0
   -4.9000    1.6550    1.1530 C   0  0  0  0  0
   -5.7980    2.7320    0.8790 O   0  0  0  0  0
   -3.4760    2.1930    1.4250 C   0  0  0  0  0
   -3.4510    3.6190    1.3250 O   0  0  0  0  0
   -2.6140    1.5570    0.3110 C   0  0  0  0  0
   -3.3360    0.3690   -0.0800 O   0  0  0  0  0
   -1.2310    1.1870    0.8500 C   0  0  0  0  0
   -0.4390    0.6420   -0.2060 O   0  0  0  0  0
    0.9950    0.2770    0.4290 P   0  0  0  0  0
    0.8170   -0.8940    1.5190 O   0  0  0  0  0
    1.5660    1.4760    1.0810 O   0  0  0  0  0
    1.9870   -0.2230   -0.7370 O   0  0  0  0  0
    3.4770   -0.1860   -0.1280 P   0  0  0  0  0
    3.6390    1.0250    0.7070 O   0  0  0  0  0
    3.7200   -1.4970    0.7740 O   0  0  0  0  0
    4.5470   -0.1560   -1.3300 O   0  0  0  0  0
    5.8360   -0.0060   -0.7320 C   0  0  0  0  0
    6.3810   -1.2930   -0.4530 O   0  0  0  0  0
    7.5280   -1.1090    0.3790 C   0  0  0  0  0
    8.1250   -2.4720    0.7370 C   0  0  0  0  0
    7.1940   -3.2050    1.5360 O   0  0  0  0  0
    6.7550    0.7560   -1.6900 C   0  0  0  0  0
    6.1470    1.9980   -2.0510 O   0  0  0  0  0
    8.0910    1.0240   -0.9810 C   0  0  0  0  0
    7.9130    2.0000    0.0470 O   0  0  0  0  0
    8.5510   -0.2870   -0.3730 C   0  0  0  0  0
    9.6940   -0.6610   -0.4860 O   0  0  0  0  0
   -9.5400    1.7920   -1.9620 H   0  0  0  0  0
  -10.7590    0.6350   -1.9880 H   0  0  0  0  0
  -10.3640   -1.5170   -1.1640 H   0  0  0  0  0
   -4.2510   -1.8900    0.9060 H   0  0  0  0  0
   -4.9590    1.3140   -0.9980 H   0  0  0  0  0
   -5.2550    1.0690    2.0000 H   0  0  0  0  0
   -5.8160    3.2890    1.6700 H   0  0  0  0  0
   -3.1270    1.8740    2.4070 H   0  0  0  0  0
   -4.0030    3.9590    2.0430 H   0  0  0  0  0
   -2.5210    2.2410   -0.5330 H   0  0  0  0  0
   -0.7450    2.0790    1.2470 H   0  0  0  0  0
   -1.3370    0.4480    1.6440 H   0  0  0  0  0
    0.4430   -1.6550    1.0540 H   0  0  0  0  0
    3.6050   -2.2620    0.1930 H   0  0  0  0  0
    5.7400    0.5540    0.1980 H   0  0  0  0  0
    7.2380   -0.5870    1.2900 H   0  0  0  0  0
    8.3370   -3.0270   -0.1760 H   0  0  0  0  0
    9.0490   -2.3270    1.2970 H   0  0  0  0  0
    7.6080   -4.0540    1.7390 H   0  0  0  0  0
    6.9290    0.1600   -2.5860 H   0  0  0  0  0
    6.7630    2.4500   -2.6430 H   0  0  0  0  0
    8.8290    1.3760   -1.7030 H   0  0  0  0  0
    8.7710    2.1080    0.4810 H   0  0  0  0  0
  1  2  1  0  0  0
  1 40  1  0  0  0
  1 41  1  0  0  0
  2  3  1  0  0  0
  2  4  2  0  0  0
  3  7  1  0  0  0
  3 42  1  0  0  0
  4  5  1  0  0  0
  5  6  2  0  0  0
  5 11  1  0  0  0
  6  7  1  0  0  0
  6  9  1  0  0  0
  7  8  2  0  0  0
  9 10  2  0  0  0
 10 11  1  0  0  0
 10 43  1  0  0  0
 11 12  1  0  0  0
 12 13  1  0  0  0
 12 18  1  0  0  0
 12 44  1  0  0  0
 13 14  1  0  0  0
 13 15  1  0  0  0
 13 45  1  0  0  0
 14 46  1  0  0  0
 15 16  1  0  0  0
 15 17  1  0  0  0
 15 47  1  0  0  0
 16 48  1  0  0  0
 17 18  1  0  0  0
 17 19  1  0  0  0
 17 49  1  0  0  0
 19 20  1  0  0  0
 19 50  1  0  0  0
 19 51  1  0  0  0
 20 21  1  0  0  0
 21 22  1  0  0  0
 21 23  2  0  0  0
 21 24  1  0  0  0
 22 52  1  0  0  0
 24 25  1  0  0  0
 25 26  2  0  0  0
 25 27  1  0  0  0
 25 28  1  0  0  0
 27 53  1  0  0  0
 28 29  1  0  0  0
 29 30  1  0  0  0
 29 34  1  0  0  0
 29 54  1  0  0  0
 30 31  1  0  0  0
 31 32  1  0  0  0
 31 38  1  0  0  0
 31 55  1  0  0  0
 32 33  1  0  0  0
 32 56  1  0  0  0
 32 57  1  0  0  0
 33 58  1  0  0  0
 34 35  1  0  0  0
 34 36  1  0  0  0
 34 59  1  0  0  0
 35 60  1  0  0  0
 36 37  1  0  0  0
 36 38  1  0  0  0
 36 61  1  0  0  0
 37 62  1  0  0  0
 38 39  2  0  0  0
M  END
$$$$
