GKE
  CCTOOLS-0919241041

 64 67  0  0  1  0  0  0  0  0999 V2000
   -9.8490    0.8020   -1.8530 N   0  0  0  0  0
   -8.9950   -0.0880   -1.2520 C   0  0  0  0  0
   -9.4460   -1.3390   -0.9540 N   0  0  0  0  0
   -7.7680    0.2930   -0.9750 N   0  0  0  0  0
   -6.9010   -0.5420   -0.3890 C   0  0  0  0  0
   -7.3020   -1.8420   -0.0640 C   0  0  0  0  0
   -8.6250   -2.2390   -0.3680 C   0  0  0  0  0
   -9.0180   -3.3620   -0.1020 O   0  0  0  0  0
   -6.2400   -2.4590    0.5100 N   0  0  0  0  0
   -5.2350   -1.6340    0.5550 C   0  0  0  0  0
   -5.5960   -0.4350    0.0100 N   0  0  0  0  0
   -4.7430    0.7480   -0.1220 C   0  0  0  0  0
   -4.9310    1.6860    1.0910 C   0  0  0  0  0
   -5.8330    2.7490    0.7750 O   0  0  0  0  0
   -3.5120    2.2400    1.3580 C   0  0  0  0  0
   -3.4940    3.6620    1.2140 O   0  0  0  0  0
   -2.6380    1.5740    0.2730 C   0  0  0  0  0
   -3.3500    0.3700   -0.0870 O   0  0  0  0  0
   -1.2580    1.2290    0.8360 C   0  0  0  0  0
   -0.4530    0.6550   -0.1960 O   0  0  0  0  0
    0.9770    0.3180    0.4630 P   0  0  0  0  0
    0.7950   -0.8190    1.5880 O   0  0  0  0  0
    1.5360    1.5400    1.0820 O   0  0  0  0  0
    1.9820   -0.2130   -0.6780 O   0  0  0  0  0
    3.4660   -0.1490   -0.0580 P   0  0  0  0  0
    3.6140    1.0880    0.7400 O   0  0  0  0  0
    3.7080   -1.4300    0.8880 O   0  0  0  0  0
    4.5470   -0.1520   -1.2510 O   0  0  0  0  0
    5.8300    0.0250   -0.6460 C   0  0  0  0  0
    6.3820   -1.2500   -0.3240 O   0  0  0  0  0
    7.5690   -1.0280    0.4350 C   0  0  0  0  0
    8.0920   -2.3650    0.9640 C   0  0  0  0  0
    7.1500   -2.9130    1.8870 O   0  0  0  0  0
    6.7550    0.7580   -1.6200 C   0  0  0  0  0
    6.1840    2.0230   -1.9610 O   0  0  0  0  0
    8.1160    0.9740   -0.9490 C   0  0  0  0  0
    7.9750    1.8700    0.1550 O   0  0  0  0  0
    8.6360   -0.3790   -0.4500 C   0  0  0  0  0
    8.9120   -1.2280   -1.5660 O   0  0  0  0  0
   -9.5440    1.6980   -2.0670 H   0  0  0  0  0
  -10.7570    0.5350   -2.0670 H   0  0  0  0  0
  -10.3580   -1.5880   -1.1720 H   0  0  0  0  0
   -4.2620   -1.8620    0.9620 H   0  0  0  0  0
   -4.9700    1.2760   -1.0490 H   0  0  0  0  0
   -5.2910    1.1250    1.9530 H   0  0  0  0  0
   -5.8610    3.3300    1.5470 H   0  0  0  0  0
   -3.1710    1.9540    2.3530 H   0  0  0  0  0
   -4.0540    4.0210    1.9150 H   0  0  0  0  0
   -2.5410    2.2300   -0.5920 H   0  0  0  0  0
   -0.7800    2.1350    1.2080 H   0  0  0  0  0
   -1.3660    0.5140    1.6520 H   0  0  0  0  0
    0.4300   -1.5960    1.1440 H   0  0  0  0  0
    3.6020   -2.2130    0.3310 H   0  0  0  0  0
    5.7230    0.6140    0.2650 H   0  0  0  0  0
    7.3450   -0.3690    1.2730 H   0  0  0  0  0
    8.2310   -3.0550    0.1320 H   0  0  0  0  0
    9.0460   -2.2070    1.4680 H   0  0  0  0  0
    7.5180   -3.7530    2.1960 H   0  0  0  0  0
    6.8840    0.1600   -2.5220 H   0  0  0  0  0
    5.3320    1.8410   -2.3790 H   0  0  0  0  0
    8.8180    1.3910   -1.6710 H   0  0  0  0  0
    7.6470    2.7060   -0.2030 H   0  0  0  0  0
    9.5480   -0.2290    0.1280 H   0  0  0  0  0
    9.5870   -0.7830   -2.0960 H   0  0  0  0  0
  1  2  1  0  0  0
  1 40  1  0  0  0
  1 41  1  0  0  0
  2  3  1  0  0  0
  2  4  2  0  0  0
  3  7  1  0  0  0
  3 42  1  0  0  0
  4  5  1  0  0  0
  5  6  2  0  0  0
  5 11  1  0  0  0
  6  7  1  0  0  0
  6  9  1  0  0  0
  7  8  2  0  0  0
  9 10  2  0  0  0
 10 11  1  0  0  0
 10 43  1  0  0  0
 11 12  1  0  0  0
 12 13  1  0  0  0
 12 18  1  0  0  0
 12 44  1  0  0  0
 13 14  1  0  0  0
 13 15  1  0  0  0
 13 45  1  0  0  0
 14 46  1  0  0  0
 15 16  1  0  0  0
 15 17  1  0  0  0
 15 47  1  0  0  0
 16 48  1  0  0  0
 17 18  1  0  0  0
 17 19  1  0  0  0
 17 49  1  0  0  0
 19 20  1  0  0  0
 19 50  1  0  0  0
 19 51  1  0  0  0
 20 21  1  0  0  0
 21 22  1  0  0  0
 21 23  2  0  0  0
 21 24  1  0  0  0
 22 52  1  0  0  0
 24 25  1  0  0  0
 25 26  2  0  0  0
 25 27  1  0  0  0
 25 28  1  0  0  0
 27 53  1  0  0  0
 28 29  1  0  0  0
 29 30  1  0  0  0
 29 34  1  0  0  0
 29 54  1  0  0  0
 30 31  1  0  0  0
 31 32  1  0  0  0
 31 38  1  0  0  0
 31 55  1  0  0  0
 32 33  1  0  0  0
 32 56  1  0  0  0
 32 57  1  0  0  0
 33 58  1  0  0  0
 34 35  1  0  0  0
 34 36  1  0  0  0
 34 59  1  0  0  0
 35 60  1  0  0  0
 36 37  1  0  0  0
 36 38  1  0  0  0
 36 61  1  0  0  0
 37 62  1  0  0  0
 38 39  1  0  0  0
 38 63  1  0  0  0
 39 64  1  0  0  0
M  END
$$$$
