GL0
  CCTOOLS-0919241041

 24 24  0  0  1  0  0  0  0  0999 V2000
    2.9600    0.0930    0.0200 O   0  0  0  0  0
    0.8010    1.1660   -0.1690 C   0  0  0  0  0
    1.5870   -0.0160    0.4030 C   0  0  0  0  0
    1.0040   -1.3220   -0.1480 C   0  0  0  0  0
   -0.4850   -1.3910    0.2020 C   0  0  0  0  0
   -1.1920   -0.1550   -0.3620 C   0  0  0  0  0
   -2.6690   -0.1860    0.0340 C   0  0  0  0  0
    1.3030    2.3840    0.3840 O   0  0  0  0  0
   -0.6410   -1.4230    1.6220 O   0  0  0  0  0
   -0.5810    1.0240    0.1660 O   0  0  0  0  0
   -3.3530    0.9030   -0.5880 O   0  0  0  0  0
    3.3920    0.9000    0.3320 H   0  0  0  0  0
    0.9120    1.1860   -1.2530 H   0  0  0  0  0
    1.5110   -0.0130    1.4900 H   0  0  0  0  0
   -0.9210   -2.2900   -0.2340 H   0  0  0  0  0
   -1.1070   -0.1530   -1.4490 H   0  0  0  0  0
   -3.1130   -1.1270   -0.2910 H   0  0  0  0  0
   -2.7560   -0.0990    1.1170 H   0  0  0  0  0
   -0.2130   -2.1790    2.0470 H   0  0  0  0  0
   -4.2960    0.9460   -0.3800 H   0  0  0  0  0
    1.5230   -2.1700    0.2990 H   0  0  0  0  0
    1.1640   -1.3550   -1.5680 O   0  0  0  0  0
    2.0840   -1.3080   -1.8610 H   0  0  0  0  0
    0.8500    3.1770    0.0650 H   0  0  0  0  0
  1  3  1  0  0  0
  1 12  1  0  0  0
  2  3  1  0  0  0
  2  8  1  0  0  0
  2 10  1  0  0  0
  2 13  1  0  0  0
  3  4  1  0  0  0
  3 14  1  0  0  0
  4  5  1  0  0  0
  4 21  1  0  0  0
  4 22  1  0  0  0
  5  6  1  0  0  0
  5  9  1  0  0  0
  5 15  1  0  0  0
  6  7  1  0  0  0
  6 10  1  0  0  0
  6 16  1  0  0  0
  7 11  1  0  0  0
  7 17  1  0  0  0
  7 18  1  0  0  0
  8 24  1  0  0  0
  9 19  1  0  0  0
 11 20  1  0  0  0
 22 23  1  0  0  0
M  END
$$$$
