GL8
  CCTOOLS-0919241041

 76 81  0  0  1  0  0  0  0  0999 V2000
   -6.0780   -1.8180   -1.0260 C   0  0  0  0  0
   -7.1040   -2.6010   -1.0510 C   0  0  0  0  0
   -7.9470   -2.8620    0.1690 C   0  0  0  0  0
   -7.0610   -2.6830    1.4060 C   0  0  0  0  0
   -6.4740   -1.2780    1.3940 C   0  0  0  0  0
   -5.5720   -1.0560    0.1670 C   0  0  0  0  0
   -7.5230    2.0290    0.3370 C   0  0  0  0  0
   -6.7620    2.9500   -0.3800 C   0  0  0  0  0
   -5.5270    2.6320   -0.8940 C   0  0  0  0  0
   -3.6430    1.0610   -1.2340 C   0  0  0  0  0
   -3.2810   -1.3260   -0.8040 C   0  0  0  0  0
   -4.1360   -1.4160    0.4340 C   0  0  0  0  0
   -6.9900    0.7450    0.5090 C   0  0  0  0  0
   -5.7690    0.4070   -0.0820 C   0  0  0  0  0
   -4.9840    1.3410   -0.7460 C   0  0  0  0  0
   -8.9660    3.7320    0.5060 C   0  0  0  0  0
   -1.5880    0.1790   -1.7140 C   0  0  0  0  0
   -0.6000   -0.0750   -0.5730 C   0  0  0  0  0
    0.8300    0.0980   -1.0880 C   0  0  0  0  0
    1.8170   -0.1560    0.0530 C   0  0  0  0  0
    3.2470    0.0170   -0.4620 C   0  0  0  0  0
    4.2350   -0.2370    0.6780 C   0  0  0  0  0
    5.6650   -0.0630    0.1630 C   0  0  0  0  0
    6.6520   -0.3180    1.3040 C   0  0  0  0  0
    8.7000    1.0100    0.8240 C   0  0  0  0  0
   10.0410    0.7790    0.2480 C   0  0  0  0  0
   11.1440    1.5840    0.0100 C   0  0  0  0  0
   12.2830    1.0380   -0.5610 C   0  0  0  0  0
   12.3250   -0.3030   -0.8960 C   0  0  0  0  0
   11.2290   -1.1200   -0.6650 C   0  0  0  0  0
   10.0840   -0.5880   -0.0940 C   0  0  0  0  0
    8.7690   -1.1420    0.2910 C   0  0  0  0  0
   -7.5210   -0.3070    1.1740 O   0  0  0  0  0
   -8.7320    2.3660    0.8550 O   0  0  0  0  0
   -9.0330   -1.9340    0.2120 O   0  0  0  0  0
    8.2800    2.0710    1.2390 O   0  0  0  0  0
    8.4210   -2.2980    0.1580 O   0  0  0  0  0
   -2.9570    0.0130   -1.2200 N   0  3  0  0  0
    8.0220   -0.1520    0.8110 N   0  0  0  0  0
   -5.5310   -1.7000   -1.9500 H   0  0  0  0  0
   -7.3670   -3.0860   -1.9800 H   0  0  0  0  0
   -8.3340   -3.8810    0.1380 H   0  0  0  0  0
   -7.6590   -2.8200    2.3070 H   0  0  0  0  0
   -6.2540   -3.4160    1.3870 H   0  0  0  0  0
   -5.9410   -1.0730    2.3220 H   0  0  0  0  0
   -7.1540    3.9430   -0.5370 H   0  0  0  0  0
   -4.9640    3.3870   -1.4220 H   0  0  0  0  0
   -3.1510    1.9080   -1.6890 H   0  0  0  0  0
   -3.8050   -1.8230   -1.6200 H   0  0  0  0  0
   -2.3500   -1.8640   -0.6200 H   0  0  0  0  0
   -4.0930   -2.4350    0.8200 H   0  0  0  0  0
   -3.7360   -0.7390    1.1890 H   0  0  0  0  0
   -8.1770    4.3550    0.9280 H   0  0  0  0  0
   -8.9680    3.8340   -0.5800 H   0  0  0  0  0
   -9.9300    4.0490    0.9020 H   0  0  0  0  0
   -1.4030   -0.5310   -2.5190 H   0  0  0  0  0
   -1.4570    1.1950   -2.0880 H   0  0  0  0  0
   -0.7850    0.6350    0.2330 H   0  0  0  0  0
   -0.7310   -1.0910   -0.1990 H   0  0  0  0  0
    1.0150   -0.6120   -1.8940 H   0  0  0  0  0
    0.9610    1.1140   -1.4620 H   0  0  0  0  0
    1.6320    0.5540    0.8580 H   0  0  0  0  0
    1.6860   -1.1720    0.4270 H   0  0  0  0  0
    3.4320   -0.6930   -1.2680 H   0  0  0  0  0
    3.3780    1.0330   -0.8360 H   0  0  0  0  0
    4.0500    0.4730    1.4840 H   0  0  0  0  0
    4.1040   -1.2530    1.0520 H   0  0  0  0  0
    5.8500   -0.7740   -0.6420 H   0  0  0  0  0
    5.7960    0.9520   -0.2110 H   0  0  0  0  0
    6.4680    0.3920    2.1100 H   0  0  0  0  0
    6.5220   -1.3330    1.6780 H   0  0  0  0  0
   11.1170    2.6320    0.2700 H   0  0  0  0  0
   13.1430    1.6640   -0.7470 H   0  0  0  0  0
   13.2170   -0.7170   -1.3420 H   0  0  0  0  0
   11.2670   -2.1660   -0.9290 H   0  0  0  0  0
   -9.5490   -2.0700   -0.5940 H   0  0  0  0  0
  1  2  2  0  0  0
  1  6  1  0  0  0
  1 40  1  0  0  0
  2  3  1  0  0  0
  2 41  1  0  0  0
  3  4  1  0  0  0
  3 35  1  0  0  0
  3 42  1  0  0  0
  4  5  1  0  0  0
  4 43  1  0  0  0
  4 44  1  0  0  0
  5  6  1  0  0  0
  5 33  1  0  0  0
  5 45  1  0  0  0
  6 12  1  0  0  0
  6 14  1  0  0  0
  7  8  2  0  0  0
  7 13  1  0  0  0
  7 34  1  0  0  0
  8  9  1  0  0  0
  8 46  1  0  0  0
  9 15  2  0  0  0
  9 47  1  0  0  0
 10 15  1  0  0  0
 10 38  2  0  0  0
 10 48  1  0  0  0
 11 12  1  0  0  0
 11 38  1  0  0  0
 11 49  1  0  0  0
 11 50  1  0  0  0
 12 51  1  0  0  0
 12 52  1  0  0  0
 13 14  2  0  0  0
 13 33  1  0  0  0
 14 15  1  0  0  0
 16 34  1  0  0  0
 16 53  1  0  0  0
 16 54  1  0  0  0
 16 55  1  0  0  0
 17 18  1  0  0  0
 17 38  1  0  0  0
 17 56  1  0  0  0
 17 57  1  0  0  0
 18 19  1  0  0  0
 18 58  1  0  0  0
 18 59  1  0  0  0
 19 20  1  0  0  0
 19 60  1  0  0  0
 19 61  1  0  0  0
 20 21  1  0  0  0
 20 62  1  0  0  0
 20 63  1  0  0  0
 21 22  1  0  0  0
 21 64  1  0  0  0
 21 65  1  0  0  0
 22 23  1  0  0  0
 22 66  1  0  0  0
 22 67  1  0  0  0
 23 24  1  0  0  0
 23 68  1  0  0  0
 23 69  1  0  0  0
 24 39  1  0  0  0
 24 70  1  0  0  0
 24 71  1  0  0  0
 25 26  1  0  0  0
 25 36  2  0  0  0
 25 39  1  0  0  0
 26 27  2  0  0  0
 26 31  1  0  0  0
 27 28  1  0  0  0
 27 72  1  0  0  0
 28 29  2  0  0  0
 28 73  1  0  0  0
 29 30  1  0  0  0
 29 74  1  0  0  0
 30 31  2  0  0  0
 30 75  1  0  0  0
 31 32  1  0  0  0
 32 37  2  0  0  0
 32 39  1  0  0  0
 35 76  1  0  0  0
M  CHG  1  38   1
M  END
$$$$
