GLL
  CCTOOLS-0919241041

 16 17  0  0  0  0  0  0  0  0999 V2000
   -0.0000    0.2400   -1.8150 C   0  0  0  0  0
   -0.0020    0.8970   -2.8380 O   0  0  0  0  0
    1.1220   -0.1520   -1.2010 N   0  0  0  0  0
   -1.1220   -0.1520   -1.1980 N   0  0  0  0  0
    0.7760   -0.9240   -0.0000 C   0  0  0  0  0
   -0.7730   -0.9270    0.0000 C   0  0  0  0  0
    1.1230   -0.1510    1.2000 N   0  0  0  0  0
   -1.1220   -0.1550    1.2010 N   0  0  0  0  0
   -0.0000    0.2410    1.8140 C   0  0  0  0  0
   -0.0010    0.8980    2.8370 O   0  0  0  0  0
    2.0230    0.0420   -1.5030 H   0  0  0  0  0
   -2.0240    0.0410   -1.4980 H   0  0  0  0  0
    1.2140   -1.9220    0.0000 H   0  0  0  0  0
   -1.1960   -1.9310    0.0060 H   0  0  0  0  0
    2.0240    0.0440    1.5010 H   0  0  0  0  0
   -2.0240    0.0360    1.5020 H   0  0  0  0  0
  1  2  2  0  0  0
  1  3  1  0  0  0
  1  4  1  0  0  0
  3  5  1  0  0  0
  3 11  1  0  0  0
  4  6  1  0  0  0
  4 12  1  0  0  0
  5  6  1  0  0  0
  5  7  1  0  0  0
  5 13  1  0  0  0
  6  8  1  0  0  0
  6 14  1  0  0  0
  7  9  1  0  0  0
  7 15  1  0  0  0
  8  9  1  0  0  0
  8 16  1  0  0  0
  9 10  2  0  0  0
M  END
$$$$
