GLO
  CCTOOLS-1004241125

 24 23  0  0  1  0  0  0  0  0999 V2000
   -0.5000   -0.1440   -3.1670 C   0  0  0  0  0
    0.2000    0.4340   -1.9650 C   0  0  0  0  0
   -0.4100   -0.1480   -0.6890 C   0  0  0  0  0
    0.3000    0.4380    0.5310 C   0  0  0  0  0
   -0.3100   -0.1440    1.8070 C   0  0  0  0  0
    0.4010    0.4430    3.0270 C   0  0  0  0  0
   -1.0720    0.5840   -3.9410 O   0  0  0  0  0
    1.5900    0.1060   -2.0200 O   0  0  0  0  0
   -0.2550   -1.5690   -0.6920 O   0  0  0  0  0
    1.6900    0.1110    0.4760 O   0  0  0  0  0
   -1.7000    0.1830    1.8620 O   0  0  0  0  0
   -0.1690   -0.1010    4.2190 O   0  0  0  0  0
   -0.4900   -1.2110   -3.3360 H   0  0  0  0  0
    0.0820    1.5170   -1.9620 H   0  0  0  0  0
   -1.4700    0.1010   -0.6470 H   0  0  0  0  0
    0.1820    1.5220    0.5340 H   0  0  0  0  0
   -0.1920   -1.2270    1.8040 H   0  0  0  0  0
    0.2820    1.5260    3.0300 H   0  0  0  0  0
    1.4610    0.1930    2.9850 H   0  0  0  0  0
    1.6500   -0.8580   -2.0210 H   0  0  0  0  0
    0.6930   -1.7460   -0.7300 H   0  0  0  0  0
    1.7500   -0.8540    0.4750 H   0  0  0  0  0
   -1.7600    1.1480    1.8630 H   0  0  0  0  0
    0.3050    0.2940    4.9620 H   0  0  0  0  0
  1  2  1  0  0  0
  1  7  2  0  0  0
  1 13  1  0  0  0
  2  3  1  0  0  0
  2  8  1  0  0  0
  2 14  1  0  0  0
  3  4  1  0  0  0
  3  9  1  0  0  0
  3 15  1  0  0  0
  4  5  1  0  0  0
  4 10  1  0  0  0
  4 16  1  0  0  0
  5  6  1  0  0  0
  5 11  1  0  0  0
  5 17  1  0  0  0
  6 12  1  0  0  0
  6 18  1  0  0  0
  6 19  1  0  0  0
  8 20  1  0  0  0
  9 21  1  0  0  0
 10 22  1  0  0  0
 11 23  1  0  0  0
 12 24  1  0  0  0
M  END
$$$$
