GM2
  CCTOOLS-0919241041

137137  0  0  1  0  0  0  0  0999 V2000
    0.7310   -6.5620   -0.3580 C   0  0  0  0  0
    1.0940   -5.1810   -0.2860 O   0  0  0  0  0
    0.8490   -7.0440   -1.8050 C   0  0  0  0  0
    1.6010   -7.3240    0.4760 O   0  0  0  0  0
    0.8500   -4.7590    1.0570 C   0  0  0  0  0
   -0.0030   -6.2580   -2.6420 O   0  0  0  0  0
    0.4230   -8.5150   -1.8780 C   0  0  0  0  0
    0.6670   -9.0240   -3.1900 O   0  0  0  0  0
    1.2430   -9.3120   -0.8570 C   0  0  0  0  0
    0.7640  -10.6570   -0.8000 O   0  0  0  0  0
    1.0980   -8.6580    0.5190 C   0  0  0  0  0
    1.8870   -9.4670    1.5510 C   0  0  0  0  0
    1.6530   -8.9320    2.8550 O   0  0  0  0  0
   -6.2290    1.0430   -0.1850 C   0  0  0  0  0
   -5.2950    0.1950    0.6820 C   0  0  0  0  0
   -7.5140    1.3410    0.5900 C   0  0  0  0  0
   -4.0110   -0.1030   -0.0940 C   0  0  0  0  0
   -3.0770   -0.9510    0.7730 C   0  0  0  0  0
   -1.7920   -1.2490   -0.0020 C   0  0  0  0  0
   -0.8730   -2.0840    0.8520 C   0  0  0  0  0
    1.2200   -3.2820    1.2020 C   0  0  0  0  0
   -1.2120   -2.4080    1.9700 O   0  0  0  0  0
    0.3260   -2.4700    0.3720 N   0  0  0  0  0
    2.6660   -3.0710    0.7510 C   0  0  0  0  0
    2.8000   -3.4630   -0.6170 O   0  0  0  0  0
    3.0360   -1.5940    0.8960 C   0  0  0  0  0
    4.5180   -1.4040    0.5630 C   0  0  0  0  0
    4.8880    0.0740    0.7090 C   0  0  0  0  0
    6.3690    0.2640    0.3760 C   0  0  0  0  0
    6.7390    1.7410    0.5220 C   0  0  0  0  0
    8.2200    1.9310    0.1890 C   0  0  0  0  0
    8.5900    3.4080    0.3340 C   0  0  0  0  0
   10.0710    3.5980    0.0020 C   0  0  0  0  0
   10.4410    5.0760    0.1470 C   0  0  0  0  0
   11.9230    5.2660   -0.1860 C   0  0  0  0  0
   12.2930    6.7430   -0.0400 C   0  0  0  0  0
   13.7740    6.9330   -0.3730 C   0  0  0  0  0
   14.1440    8.4110   -0.2270 C   0  0  0  0  0
   15.6250    8.6010   -0.5600 C   0  0  0  0  0
   15.9950   10.0780   -0.4150 C   0  0  0  0  0
   17.4760   10.2680   -0.7470 C   0  0  0  0  0
   -8.4470    2.1890   -0.2770 C   0  0  0  0  0
   -9.7320    2.4870    0.4990 C   0  0  0  0  0
  -10.6650    3.3350   -0.3680 C   0  0  0  0  0
  -11.9500    3.6330    0.4070 C   0  0  0  0  0
  -12.8840    4.4810   -0.4600 C   0  0  0  0  0
  -14.1680    4.7790    0.3150 C   0  0  0  0  0
  -15.1020    5.6270   -0.5510 C   0  0  0  0  0
  -16.3870    5.9250    0.2240 C   0  0  0  0  0
  -17.3200    6.7730   -0.6430 C   0  0  0  0  0
  -18.6050    7.0710    0.1320 C   0  0  0  0  0
  -19.5390    7.9190   -0.7350 C   0  0  0  0  0
   -0.2970   -6.6840   -0.0170 H   0  0  0  0  0
    1.8810   -6.9460   -2.1410 H   0  0  0  0  0
    1.4550   -5.3540    1.7410 H   0  0  0  0  0
   -0.2050   -4.8940    1.2940 H   0  0  0  0  0
    0.2990   -5.3430   -2.5670 H   0  0  0  0  0
   -0.6370   -8.6020   -1.6430 H   0  0  0  0  0
    0.1330   -8.4950   -3.7990 H   0  0  0  0  0
    2.2930   -9.3110   -1.1510 H   0  0  0  0  0
    0.8740  -11.0300   -1.6860 H   0  0  0  0  0
    0.0450   -8.6390    0.8020 H   0  0  0  0  0
    1.5630  -10.5070    1.5220 H   0  0  0  0  0
    2.9510   -9.4100    1.3210 H   0  0  0  0  0
    2.1670   -9.4680    3.4740 H   0  0  0  0  0
   -6.4730    0.4970   -1.0970 H   0  0  0  0  0
   -5.7340    1.9790   -0.4440 H   0  0  0  0  0
   -5.0510    0.7410    1.5930 H   0  0  0  0  0
   -5.7900   -0.7410    0.9400 H   0  0  0  0  0
   -7.2690    1.8870    1.5020 H   0  0  0  0  0
   -8.0080    0.4050    0.8490 H   0  0  0  0  0
   -4.2550   -0.6490   -1.0050 H   0  0  0  0  0
   -3.5160    0.8330   -0.3520 H   0  0  0  0  0
   -2.8330   -0.4050    1.6850 H   0  0  0  0  0
   -3.5720   -1.8870    1.0320 H   0  0  0  0  0
   -2.0370   -1.7950   -0.9140 H   0  0  0  0  0
   -1.2980   -0.3130   -0.2610 H   0  0  0  0  0
    1.1180   -2.9830    2.2460 H   0  0  0  0  0
    0.5970   -2.2110   -0.5220 H   0  0  0  0  0
    3.3320   -3.6750    1.3680 H   0  0  0  0  0
    2.1960   -2.9060   -1.1280 H   0  0  0  0  0
    2.4310   -0.9990    0.2120 H   0  0  0  0  0
    2.8500   -1.2720    1.9210 H   0  0  0  0  0
    5.1230   -1.9990    1.2470 H   0  0  0  0  0
    4.7040   -1.7260   -0.4610 H   0  0  0  0  0
    4.2820    0.6690    0.0250 H   0  0  0  0  0
    4.7010    0.3960    1.7330 H   0  0  0  0  0
    6.9740   -0.3320    1.0600 H   0  0  0  0  0
    6.5550   -0.0580   -0.6480 H   0  0  0  0  0
    6.1340    2.3360   -0.1620 H   0  0  0  0  0
    6.5520    2.0630    1.5460 H   0  0  0  0  0
    8.8250    1.3360    0.8730 H   0  0  0  0  0
    8.4070    1.6090   -0.8360 H   0  0  0  0  0
    7.9850    4.0040   -0.3490 H   0  0  0  0  0
    8.4040    3.7300    1.3590 H   0  0  0  0  0
   10.6770    3.0030    0.6850 H   0  0  0  0  0
   10.2580    3.2760   -1.0230 H   0  0  0  0  0
   10.2550    5.3980    1.1720 H   0  0  0  0  0
    9.8360    5.6710   -0.5370 H   0  0  0  0  0
   12.5280    4.6710    0.4980 H   0  0  0  0  0
   12.1090    4.9440   -1.2100 H   0  0  0  0  0
   11.6870    7.3380   -0.7240 H   0  0  0  0  0
   12.1060    7.0650    0.9840 H   0  0  0  0  0
   14.3790    6.3380    0.3110 H   0  0  0  0  0
   13.9600    6.6110   -1.3970 H   0  0  0  0  0
   13.5390    9.0060   -0.9110 H   0  0  0  0  0
   13.9570    8.7330    0.7970 H   0  0  0  0  0
   16.2300    8.0050    0.1240 H   0  0  0  0  0
   15.8120    8.2790   -1.5850 H   0  0  0  0  0
   15.3900   10.6730   -1.0980 H   0  0  0  0  0
   15.8090   10.4000    0.6100 H   0  0  0  0  0
   18.0820    9.6730   -0.0630 H   0  0  0  0  0
   17.6630    9.9460   -1.7720 H   0  0  0  0  0
   17.7400   11.3210   -0.6440 H   0  0  0  0  0
   -8.6910    1.6430   -1.1880 H   0  0  0  0  0
   -7.9530    3.1250   -0.5350 H   0  0  0  0  0
   -9.4880    3.0330    1.4100 H   0  0  0  0  0
  -10.2260    1.5510    0.7570 H   0  0  0  0  0
  -10.9100    2.7890   -1.2800 H   0  0  0  0  0
  -10.1710    4.2710   -0.6270 H   0  0  0  0  0
  -11.7060    4.1790    1.3180 H   0  0  0  0  0
  -12.4450    2.6970    0.6650 H   0  0  0  0  0
  -13.1280    3.9350   -1.3710 H   0  0  0  0  0
  -12.3890    5.4170   -0.7180 H   0  0  0  0  0
  -13.9240    5.3250    1.2270 H   0  0  0  0  0
  -14.6630    3.8430    0.5740 H   0  0  0  0  0
  -15.3460    5.0810   -1.4630 H   0  0  0  0  0
  -14.6080    6.5630   -0.8100 H   0  0  0  0  0
  -16.1430    6.4710    1.1350 H   0  0  0  0  0
  -16.8810    4.9890    0.4820 H   0  0  0  0  0
  -17.5640    6.2270   -1.5550 H   0  0  0  0  0
  -16.8260    7.7090   -0.9020 H   0  0  0  0  0
  -18.3610    7.6170    1.0440 H   0  0  0  0  0
  -19.0990    6.1350    0.3910 H   0  0  0  0  0
  -19.0440    8.8550   -0.9930 H   0  0  0  0  0
  -19.7830    7.3730   -1.6460 H   0  0  0  0  0
  -20.4540    8.1310   -0.1820 H   0  0  0  0  0
  1  2  1  0  0  0
  1  3  1  0  0  0
  1  4  1  0  0  0
  1 53  1  0  0  0
  2  5  1  0  0  0
  3  6  1  0  0  0
  3  7  1  0  0  0
  3 54  1  0  0  0
  4 11  1  0  0  0
  5 21  1  0  0  0
  5 55  1  0  0  0
  5 56  1  0  0  0
  6 57  1  0  0  0
  7  8  1  0  0  0
  7  9  1  0  0  0
  7 58  1  0  0  0
  8 59  1  0  0  0
  9 10  1  0  0  0
  9 11  1  0  0  0
  9 60  1  0  0  0
 10 61  1  0  0  0
 11 12  1  0  0  0
 11 62  1  0  0  0
 12 13  1  0  0  0
 12 63  1  0  0  0
 12 64  1  0  0  0
 13 65  1  0  0  0
 14 15  1  0  0  0
 14 16  1  0  0  0
 14 66  1  0  0  0
 14 67  1  0  0  0
 15 17  1  0  0  0
 15 68  1  0  0  0
 15 69  1  0  0  0
 16 42  1  0  0  0
 16 70  1  0  0  0
 16 71  1  0  0  0
 17 18  1  0  0  0
 17 72  1  0  0  0
 17 73  1  0  0  0
 18 19  1  0  0  0
 18 74  1  0  0  0
 18 75  1  0  0  0
 19 20  1  0  0  0
 19 76  1  0  0  0
 19 77  1  0  0  0
 20 22  2  0  0  0
 20 23  1  0  0  0
 21 23  1  0  0  0
 21 24  1  0  0  0
 21 78  1  0  0  0
 23 79  1  0  0  0
 24 25  1  0  0  0
 24 26  1  0  0  0
 24 80  1  0  0  0
 25 81  1  0  0  0
 26 27  1  0  0  0
 26 82  1  0  0  0
 26 83  1  0  0  0
 27 28  1  0  0  0
 27 84  1  0  0  0
 27 85  1  0  0  0
 28 29  1  0  0  0
 28 86  1  0  0  0
 28 87  1  0  0  0
 29 30  1  0  0  0
 29 88  1  0  0  0
 29 89  1  0  0  0
 30 31  1  0  0  0
 30 90  1  0  0  0
 30 91  1  0  0  0
 31 32  1  0  0  0
 31 92  1  0  0  0
 31 93  1  0  0  0
 32 33  1  0  0  0
 32 94  1  0  0  0
 32 95  1  0  0  0
 33 34  1  0  0  0
 33 96  1  0  0  0
 33 97  1  0  0  0
 34 35  1  0  0  0
 34 98  1  0  0  0
 34 99  1  0  0  0
 35 36  1  0  0  0
 35100  1  0  0  0
 35101  1  0  0  0
 36 37  1  0  0  0
 36102  1  0  0  0
 36103  1  0  0  0
 37 38  1  0  0  0
 37104  1  0  0  0
 37105  1  0  0  0
 38 39  1  0  0  0
 38106  1  0  0  0
 38107  1  0  0  0
 39 40  1  0  0  0
 39108  1  0  0  0
 39109  1  0  0  0
 40 41  1  0  0  0
 40110  1  0  0  0
 40111  1  0  0  0
 41112  1  0  0  0
 41113  1  0  0  0
 41114  1  0  0  0
 42 43  1  0  0  0
 42115  1  0  0  0
 42116  1  0  0  0
 43 44  1  0  0  0
 43117  1  0  0  0
 43118  1  0  0  0
 44 45  1  0  0  0
 44119  1  0  0  0
 44120  1  0  0  0
 45 46  1  0  0  0
 45121  1  0  0  0
 45122  1  0  0  0
 46 47  1  0  0  0
 46123  1  0  0  0
 46124  1  0  0  0
 47 48  1  0  0  0
 47125  1  0  0  0
 47126  1  0  0  0
 48 49  1  0  0  0
 48127  1  0  0  0
 48128  1  0  0  0
 49 50  1  0  0  0
 49129  1  0  0  0
 49130  1  0  0  0
 50 51  1  0  0  0
 50131  1  0  0  0
 50132  1  0  0  0
 51 52  1  0  0  0
 51133  1  0  0  0
 51134  1  0  0  0
 52135  1  0  0  0
 52136  1  0  0  0
 52137  1  0  0  0
M  END
$$$$
