GND
  CCTOOLS-0919241041

 27 26  0  0  1  0  0  0  0  0999 V2000
    1.4950    1.4760    2.0400 C   0  0  0  0  0
    2.3750    0.2470    2.2920 C   0  0  0  0  0
    1.6150   -0.9270    2.9230 C   0  0  0  0  0
    2.5170   -2.1290    3.1970 C   0  0  0  0  0
    1.7630   -3.2100    3.7850 N   0  0  0  0  0
    2.2430   -4.4450    4.1680 C   0  0  0  0  0
    1.4540   -5.3470    4.6900 N   0  0  0  0  0
    3.5810   -4.6810    3.9740 N   0  0  0  0  0
    0.3710    1.1460    1.0810 C   0  0  0  0  0
    0.8350    0.8100   -0.1510 O   0  0  0  0  0
   -0.8200    1.1710    1.3600 O   0  0  0  0  0
    0.9230    1.9500    3.3350 N   0  3  0  0  0
    2.0670    2.3220    1.6450 H   0  0  0  0  0
    2.8050   -0.0870    1.3390 H   0  0  0  0  0
    3.2260    0.5270    2.9260 H   0  0  0  0  0
    1.1390   -0.6110    3.8590 H   0  0  0  0  0
    0.8150   -1.2420    2.2420 H   0  0  0  0  0
    2.9540   -2.4770    2.2560 H   0  0  0  0  0
    3.3430   -1.8520    3.8600 H   0  0  0  0  0
    0.7720   -3.0310    3.9260 H   0  0  0  0  0
    0.5060   -4.9600    4.7420 H   0  0  0  0  0
    4.2010   -3.9880    3.5710 H   0  0  0  0  0
    3.9980   -5.5690    4.2340 H   0  0  0  0  0
    0.1430    0.5870   -0.8100 H   0  0  0  0  0
    1.6000    1.8300    4.0910 H   0  0  0  0  0
    0.0800    1.4210    3.5680 H   0  0  0  0  0
    0.6770    2.9410    3.2760 H   0  0  0  0  0
  1  2  1  0  0  0
  1  9  1  0  0  0
  1 12  1  0  0  0
  1 13  1  0  0  0
  2  3  1  0  0  0
  2 14  1  0  0  0
  2 15  1  0  0  0
  3  4  1  0  0  0
  3 16  1  0  0  0
  3 17  1  0  0  0
  4  5  1  0  0  0
  4 18  1  0  0  0
  4 19  1  0  0  0
  5  6  1  0  0  0
  5 20  1  0  0  0
  6  7  2  0  0  0
  6  8  1  0  0  0
  7 21  1  0  0  0
  8 22  1  0  0  0
  8 23  1  0  0  0
  9 10  1  0  0  0
  9 11  2  0  0  0
 10 24  1  0  0  0
 12 25  1  0  0  0
 12 26  1  0  0  0
 12 27  1  0  0  0
M  CHG  1  12   1
M  END
$$$$
