GNH
  CCTOOLS-0919241041

 44 46  0  0  1  0  0  0  0  0999 V2000
   -2.1700   -1.3030    6.8560 N   0  0  0  0  0
   -1.1200   -0.3310    5.9710 P   0  0  0  0  0
   -1.7040    1.0200    5.8250 O   0  0  0  0  0
    0.2900   -0.2260    6.7390 O   0  0  0  0  0
   -0.8910   -0.9770    4.5140 O   0  0  0  0  0
    0.1170   -0.0010    3.7260 P   0  0  0  0  0
   -0.4850    1.3450    3.6140 O   0  0  0  0  0
    1.5070    0.0980    4.5320 O   0  0  0  0  0
    0.3920   -0.5890    2.2530 O   0  0  0  0  0
    1.2890    0.3150    1.6070 C   0  0  0  0  0
    1.5930   -0.1870    0.1940 C   0  0  0  0  0
    0.3820   -0.2450   -0.5890 O   0  0  0  0  0
    2.5000    0.8140   -0.5520 C   0  0  0  0  0
    3.8650    0.3940   -0.4950 O   0  0  0  0  0
    1.9810    0.7780   -2.0090 C   0  0  0  0  0
    3.0100    0.3360   -2.8960 O   0  0  0  0  0
    0.8200   -0.2390   -1.9660 C   0  0  0  0  0
   -0.2680    0.1910   -2.8450 N   0  0  0  0  0
   -1.3080    1.0070   -2.5030 C   0  0  0  0  0
   -2.0890    1.1800   -3.5290 N   0  0  0  0  0
   -1.5990    0.4900   -4.5870 C   0  0  0  0  0
   -2.0180    0.3130   -5.9270 C   0  0  0  0  0
   -3.0300    0.8510   -6.3410 O   0  0  0  0  0
   -1.2650   -0.4620   -6.7370 N   0  0  0  0  0
   -0.1380   -1.0640   -6.2620 C   0  0  0  0  0
    0.6030   -1.8510   -7.1060 N   0  0  0  0  0
    0.2610   -0.9070   -5.0190 N   0  0  0  0  0
   -0.4300   -0.1490   -4.1610 C   0  0  0  0  0
   -3.0670   -1.2570    6.3960 H   0  0  0  0  0
   -2.2840   -0.8620    7.7570 H   0  0  0  0  0
    0.6350   -1.1260    6.8130 H   0  0  0  0  0
    1.8660   -0.7980    4.5820 H   0  0  0  0  0
    0.8300    1.3020    1.5500 H   0  0  0  0  0
    2.2160    0.3780    2.1780 H   0  0  0  0  0
    2.0660   -1.1690    0.2360 H   0  0  0  0  0
    2.3920    1.8140   -0.1320 H   0  0  0  0  0
    4.3810    1.0550   -0.9760 H   0  0  0  0  0
    1.6150    1.7600   -2.3080 H   0  0  0  0  0
    3.7290    0.9800   -2.8330 H   0  0  0  0  0
    1.1720   -1.2290   -2.2560 H   0  0  0  0  0
   -1.4590    1.4420   -1.5260 H   0  0  0  0  0
   -1.5320   -0.5980   -7.6600 H   0  0  0  0  0
    1.4100   -2.2820   -6.7840 H   0  0  0  0  0
    0.3190   -1.9790   -8.0250 H   0  0  0  0  0
  1  2  1  0  0  0
  1 29  1  0  0  0
  1 30  1  0  0  0
  2  3  2  0  0  0
  2  4  1  0  0  0
  2  5  1  0  0  0
  4 31  1  0  0  0
  5  6  1  0  0  0
  6  7  2  0  0  0
  6  8  1  0  0  0
  6  9  1  0  0  0
  8 32  1  0  0  0
  9 10  1  0  0  0
 10 11  1  0  0  0
 10 33  1  0  0  0
 10 34  1  0  0  0
 11 12  1  0  0  0
 11 13  1  0  0  0
 11 35  1  0  0  0
 12 17  1  0  0  0
 13 14  1  0  0  0
 13 15  1  0  0  0
 13 36  1  0  0  0
 14 37  1  0  0  0
 15 16  1  0  0  0
 15 17  1  0  0  0
 15 38  1  0  0  0
 16 39  1  0  0  0
 17 18  1  0  0  0
 17 40  1  0  0  0
 18 19  1  0  0  0
 18 28  1  0  0  0
 19 20  2  0  0  0
 19 41  1  0  0  0
 20 21  1  0  0  0
 21 22  1  0  0  0
 21 28  2  0  0  0
 22 23  2  0  0  0
 22 24  1  0  0  0
 24 25  1  0  0  0
 24 42  1  0  0  0
 25 26  1  0  0  0
 25 27  2  0  0  0
 26 43  1  0  0  0
 26 44  1  0  0  0
 27 28  1  0  0  0
M  END
$$$$
