GNP
  CCTOOLS-0919241041

 49 51  0  0  1  0  0  0  0  0999 V2000
   -1.2310   -0.2950    7.2120 P   0  0  0  0  0
   -1.7590    1.0780    7.0630 O   0  0  0  0  0
   -2.1580   -1.1180    8.2400 O   0  0  0  0  0
    0.2740   -0.2340    7.7780 O   0  0  0  0  0
   -1.2360   -1.0640    5.7140 N   0  0  0  0  0
   -0.2520   -0.1510    4.6990 P   0  0  0  0  0
   -0.7950    1.2210    4.5890 O   0  0  0  0  0
    1.2370   -0.0910    5.3070 O   0  0  0  0  0
   -0.2090   -0.8300    3.2400 O   0  0  0  0  0
    0.7440    0.0890    2.3260 P   0  0  0  0  0
    0.1850    1.4580    2.2520 O   0  0  0  0  0
    2.2160    0.1450    2.9740 O   0  0  0  0  0
    0.8320   -0.5340    0.8450 O   0  0  0  0  0
    1.6880    0.3220    0.0860 C   0  0  0  0  0
    1.8150   -0.2170   -1.3390 C   0  0  0  0  0
    0.5240   -0.2370   -1.9860 O   0  0  0  0  0
    2.6740    0.7340   -2.2020 C   0  0  0  0  0
    4.0180    0.2580   -2.2850 O   0  0  0  0  0
    1.9970    0.6950   -3.5920 C   0  0  0  0  0
    2.9040    0.1960   -4.5770 O   0  0  0  0  0
    0.8080   -0.2720   -3.4020 C   0  0  0  0  0
   -0.3520    0.1880   -4.1660 N   0  0  0  0  0
   -1.3150    1.0510   -3.7300 C   0  0  0  0  0
   -2.1960    1.2400   -4.6680 N   0  0  0  0  0
   -1.8530    0.5120   -5.7590 C   0  0  0  0  0
   -2.4230    0.3300   -7.0410 C   0  0  0  0  0
   -3.4530    0.9020   -7.3540 O   0  0  0  0  0
   -1.7940   -0.4890   -7.9120 N   0  0  0  0  0
   -0.6460   -1.1290   -7.5490 C   0  0  0  0  0
   -0.0330   -1.9600   -8.4530 N   0  0  0  0  0
   -0.1070   -0.9680   -6.3610 N   0  0  0  0  0
   -0.6700   -0.1680   -5.4490 C   0  0  0  0  0
   -2.1270   -0.6450    9.0830 H   0  0  0  0  0
    0.5790   -1.1470    7.8600 H   0  0  0  0  0
   -2.1750   -0.9880    5.3530 H   0  0  0  0  0
    1.5530   -1.0040    5.3620 H   0  0  0  0  0
    2.5430   -0.7640    3.0040 H   0  0  0  0  0
    1.2650    1.3260    0.0580 H   0  0  0  0  0
    2.6730    0.3560    0.5510 H   0  0  0  0  0
    2.2510   -1.2160   -1.3290 H   0  0  0  0  0
    2.6520    1.7440   -1.7930 H   0  0  0  0  0
    4.5050    0.8890   -2.8330 H   0  0  0  0  0
    1.6390    1.6860   -3.8710 H   0  0  0  0  0
    3.6510    0.8100   -4.6060 H   0  0  0  0  0
    1.0870   -1.2810   -3.7080 H   0  0  0  0  0
   -1.3410    1.5090   -2.7520 H   0  0  0  0  0
   -2.1660   -0.6300   -8.7970 H   0  0  0  0  0
    0.7860   -2.4190   -8.2100 H   0  0  0  0  0
   -0.4210   -2.0920   -9.3320 H   0  0  0  0  0
  1  2  2  0  0  0
  1  3  1  0  0  0
  1  4  1  0  0  0
  1  5  1  0  0  0
  3 33  1  0  0  0
  4 34  1  0  0  0
  5  6  1  0  0  0
  5 35  1  0  0  0
  6  7  2  0  0  0
  6  8  1  0  0  0
  6  9  1  0  0  0
  8 36  1  0  0  0
  9 10  1  0  0  0
 10 11  2  0  0  0
 10 12  1  0  0  0
 10 13  1  0  0  0
 12 37  1  0  0  0
 13 14  1  0  0  0
 14 15  1  0  0  0
 14 38  1  0  0  0
 14 39  1  0  0  0
 15 16  1  0  0  0
 15 17  1  0  0  0
 15 40  1  0  0  0
 16 21  1  0  0  0
 17 18  1  0  0  0
 17 19  1  0  0  0
 17 41  1  0  0  0
 18 42  1  0  0  0
 19 20  1  0  0  0
 19 21  1  0  0  0
 19 43  1  0  0  0
 20 44  1  0  0  0
 21 22  1  0  0  0
 21 45  1  0  0  0
 22 23  1  0  0  0
 22 32  1  0  0  0
 23 24  2  0  0  0
 23 46  1  0  0  0
 24 25  1  0  0  0
 25 26  1  0  0  0
 25 32  2  0  0  0
 26 27  2  0  0  0
 26 28  1  0  0  0
 28 29  1  0  0  0
 28 47  1  0  0  0
 29 30  1  0  0  0
 29 31  2  0  0  0
 30 48  1  0  0  0
 30 49  1  0  0  0
 31 32  1  0  0  0
M  END
$$$$
