GNT
  CCTOOLS-0919241041

 42 45  0  0  1  0  0  0  0  0999 V2000
   -1.7210    1.0170   -0.6060 C   0  0  0  0  0
   -2.7000    1.3570    0.1620 C   0  0  0  0  0
   -3.2690    0.4720    1.2250 C   0  0  0  0  0
   -2.8880   -0.9780    1.0160 C   0  0  0  0  0
   -1.4550   -1.1760    0.6020 C   0  0  0  0  0
   -1.0130   -0.2950   -0.5680 C   0  0  0  0  0
   -0.5370   -0.8460    1.6520 O   0  0  0  0  0
    1.8150   -0.1160    1.7600 C   0  0  0  0  0
    2.8370    0.4310    0.9940 C   0  0  0  0  0
    2.6750    0.6930   -0.3440 C   0  0  0  0  0
    1.4830    0.6710   -2.4930 C   0  0  0  0  0
    0.7790   -0.3480   -3.2410 N   0  0  0  0  0
   -0.6370   -0.2720   -3.0430 C   0  0  0  0  0
   -1.1600   -1.0510   -1.8730 C   0  0  0  0  0
    0.6030   -0.3690    1.1060 C   0  0  0  0  0
    0.4550   -0.0630   -0.2520 C   0  0  0  0  0
    1.4680    0.4320   -1.0120 C   0  0  0  0  0
    3.3250   -0.0260    3.4120 C   0  0  0  0  0
    1.9860   -0.3990    3.0800 O   0  0  0  0  0
   -2.7810    0.9020    2.4970 O   0  0  0  0  0
    1.0210   -0.0720   -4.6630 C   0  0  0  0  0
   -1.3870    1.7400   -1.3350 H   0  0  0  0  0
   -3.1340    2.3370    0.0300 H   0  0  0  0  0
   -4.3560    0.5590    1.2140 H   0  0  0  0  0
   -3.0600   -1.5200    1.9460 H   0  0  0  0  0
   -3.5350   -1.4000    0.2470 H   0  0  0  0  0
   -1.3080   -2.2180    0.3180 H   0  0  0  0  0
    3.7830    0.6570    1.4640 H   0  0  0  0  0
    3.5010    1.1130   -0.8990 H   0  0  0  0  0
    1.0210    1.6370   -2.6960 H   0  0  0  0  0
    2.5190    0.7030   -2.8320 H   0  0  0  0  0
   -0.9080    0.7740   -2.9070 H   0  0  0  0  0
   -1.1290   -0.6350   -3.9450 H   0  0  0  0  0
   -2.2160   -1.2700   -2.0380 H   0  0  0  0  0
   -0.6140   -1.9910   -1.8010 H   0  0  0  0  0
    3.5090   -0.2350    4.4660 H   0  0  0  0  0
    4.0230   -0.5970    2.8010 H   0  0  0  0  0
    3.4630    1.0380    3.2230 H   0  0  0  0  0
   -3.0720    1.8160    2.6150 H   0  0  0  0  0
    0.5470    0.8700   -4.9360 H   0  0  0  0  0
    2.0940   -0.0040   -4.8430 H   0  0  0  0  0
    0.6020   -0.8770   -5.2670 H   0  0  0  0  0
  1  2  2  0  0  0
  1  6  1  0  0  0
  1 22  1  0  0  0
  2  3  1  0  0  0
  2 23  1  0  0  0
  3  4  1  0  0  0
  3 20  1  0  0  0
  3 24  1  0  0  0
  4  5  1  0  0  0
  4 25  1  0  0  0
  4 26  1  0  0  0
  5  6  1  0  0  0
  5  7  1  0  0  0
  5 27  1  0  0  0
  6 14  1  0  0  0
  6 16  1  0  0  0
  7 15  1  0  0  0
  8  9  2  0  0  0
  8 15  1  0  0  0
  8 19  1  0  0  0
  9 10  1  0  0  0
  9 28  1  0  0  0
 10 17  2  0  0  0
 10 29  1  0  0  0
 11 12  1  0  0  0
 11 17  1  0  0  0
 11 30  1  0  0  0
 11 31  1  0  0  0
 12 13  1  0  0  0
 12 21  1  0  0  0
 13 14  1  0  0  0
 13 32  1  0  0  0
 13 33  1  0  0  0
 14 34  1  0  0  0
 14 35  1  0  0  0
 15 16  2  0  0  0
 16 17  1  0  0  0
 18 19  1  0  0  0
 18 36  1  0  0  0
 18 37  1  0  0  0
 18 38  1  0  0  0
 20 39  1  0  0  0
 21 40  1  0  0  0
 21 41  1  0  0  0
 21 42  1  0  0  0
M  END
$$$$
