GP1
  CCTOOLS-0919241041

 30 30  0  0  1  0  0  0  0  0999 V2000
    0.5820   -0.7870    0.1950 C   0  0  0  0  0
    1.6070   -0.7530   -0.9390 C   0  0  0  0  0
    1.2030    0.3280   -1.9470 C   0  0  0  0  0
   -0.2440    0.0770   -2.3830 C   0  0  0  0  0
   -1.1300   -0.0170   -1.1380 C   0  0  0  0  0
   -2.5830   -0.2360   -1.5630 C   0  0  0  0  0
    2.9350   -0.4450   -0.3930 N   0  0  0  0  0
    0.5320    0.4940    0.8240 O   0  0  0  0  0
    2.0660    0.2700   -3.0850 O   0  0  0  0  0
   -0.6900    1.1550   -3.2080 O   0  0  0  0  0
   -3.4110   -0.3240   -0.4020 O   0  0  0  0  0
   -0.7050   -1.1090   -0.3250 O   0  0  0  0  0
    0.0690    1.6520    3.1390 O   0  0  0  0  0
    0.1430    0.2420    2.3660 P   0  0  0  0  0
    1.1690   -0.6140    3.0000 O   0  0  0  0  0
   -1.2890   -0.4880    2.4450 O   0  0  0  0  0
    0.8740   -1.5390    0.9280 H   0  0  0  0  0
    1.6330   -1.7230   -1.4360 H   0  0  0  0  0
    1.2790    1.3100   -1.4800 H   0  0  0  0  0
   -0.3000   -0.8560   -2.9420 H   0  0  0  0  0
   -1.0550    0.9080   -0.5680 H   0  0  0  0  0
   -2.9110    0.6000   -2.1800 H   0  0  0  0  0
   -2.6590   -1.1610   -2.1350 H   0  0  0  0  0
    3.1560   -1.1780    0.2630 H   0  0  0  0  0
    3.5900   -0.5320   -1.1560 H   0  0  0  0  0
    1.7770    0.9660   -3.6910 H   0  0  0  0  0
   -1.6020    0.9570   -3.4580 H   0  0  0  0  0
   -4.3160   -0.4620   -0.7140 H   0  0  0  0  0
   -0.1650    1.4570    4.0560 H   0  0  0  0  0
   -1.9270    0.1020    2.0220 H   0  0  0  0  0
  1  2  1  0  0  0
  1  8  1  0  0  0
  1 12  1  0  0  0
  1 17  1  0  0  0
  2  3  1  0  0  0
  2  7  1  0  0  0
  2 18  1  0  0  0
  3  4  1  0  0  0
  3  9  1  0  0  0
  3 19  1  0  0  0
  4  5  1  0  0  0
  4 10  1  0  0  0
  4 20  1  0  0  0
  5  6  1  0  0  0
  5 12  1  0  0  0
  5 21  1  0  0  0
  6 11  1  0  0  0
  6 22  1  0  0  0
  6 23  1  0  0  0
  7 24  1  0  0  0
  7 25  1  0  0  0
  8 14  1  0  0  0
  9 26  1  0  0  0
 10 27  1  0  0  0
 11 28  1  0  0  0
 13 14  1  0  0  0
 13 29  1  0  0  0
 14 15  2  0  0  0
 14 16  1  0  0  0
 16 30  1  0  0  0
M  END
$$$$
