GP4
  CCTOOLS-0919241041

 30 30  0  0  1  0  0  0  0  0999 V2000
    0.2160    0.3210    2.8220 C   0  0  0  0  0
   -1.1720    0.5150    2.2090 C   0  0  0  0  0
   -1.2860   -0.3440    0.9450 C   0  0  0  0  0
   -0.1100   -0.0140    0.0190 C   0  0  0  0  0
    1.1970   -0.1670    0.7970 C   0  0  0  0  0
    2.3780    0.1290   -0.1290 C   0  0  0  0  0
   -2.1980    0.1050    3.1770 N   0  0  0  0  0
   -2.5170   -0.0620    0.2760 O   0  0  0  0  0
   -0.1110   -0.9080   -1.0950 O   0  0  0  0  0
    3.6010   -0.0200    0.5930 O   0  0  0  0  0
    1.2160    0.7420    1.8950 O   0  0  0  0  0
   -0.2560   -0.9490   -3.7200 O   0  0  0  0  0
   -0.2480   -0.0010   -2.4190 P   0  0  0  0  0
    0.8950    0.9340   -2.4970 O   0  0  0  0  0
   -1.6230    0.8340   -2.3560 O   0  0  0  0  0
    0.4100   -1.0590    3.1330 O   0  0  0  0  0
    0.2950    0.9130    3.7340 H   0  0  0  0  0
   -1.3130    1.5640    1.9500 H   0  0  0  0  0
   -1.2520   -1.3990    1.2180 H   0  0  0  0  0
   -0.2050    1.0120   -0.3360 H   0  0  0  0  0
    1.2790   -1.1880    1.1710 H   0  0  0  0  0
    2.3640   -0.5650   -0.9690 H   0  0  0  0  0
    2.2980    1.1500   -0.5020 H   0  0  0  0  0
   -2.0820    0.6930    3.9880 H   0  0  0  0  0
   -3.0910    0.3430    2.7710 H   0  0  0  0  0
   -3.2280   -0.2840    0.8930 H   0  0  0  0  0
    4.3170    0.1750   -0.0250 H   0  0  0  0  0
   -0.3400   -0.3680   -4.4880 H   0  0  0  0  0
   -2.3410    0.1890   -2.3060 H   0  0  0  0  0
    1.2940   -1.1380    3.5160 H   0  0  0  0  0
  1  2  1  0  0  0
  1 11  1  0  0  0
  1 16  1  0  0  0
  1 17  1  0  0  0
  2  3  1  0  0  0
  2  7  1  0  0  0
  2 18  1  0  0  0
  3  4  1  0  0  0
  3  8  1  0  0  0
  3 19  1  0  0  0
  4  5  1  0  0  0
  4  9  1  0  0  0
  4 20  1  0  0  0
  5  6  1  0  0  0
  5 11  1  0  0  0
  5 21  1  0  0  0
  6 10  1  0  0  0
  6 22  1  0  0  0
  6 23  1  0  0  0
  7 24  1  0  0  0
  7 25  1  0  0  0
  8 26  1  0  0  0
  9 13  1  0  0  0
 10 27  1  0  0  0
 12 13  1  0  0  0
 12 28  1  0  0  0
 13 14  2  0  0  0
 13 15  1  0  0  0
 15 29  1  0  0  0
 16 30  1  0  0  0
M  END
$$$$
