GPI
  CCTOOLS-0919241041

 54 55  0  0  1  0  0  0  0  0999 V2000
   -1.5040   -0.6900    0.8990 C   0  0  0  0  0
   -1.2940   -0.2580    2.2880 N   0  0  0  0  0
   -2.5400    0.3510    2.7870 C   0  0  0  0  0
   -2.9670   -0.3610    0.5330 C   0  0  0  0  0
   -3.6620   -0.2700    1.9170 C   0  0  0  0  0
   -0.5670    0.0440   -0.0240 C   0  0  0  0  0
    0.2130    0.8490    0.4230 O   0  0  0  0  0
   -0.6010   -0.1940   -1.3440 O   0  0  0  0  0
    0.3000    0.5140   -2.2340 C   0  0  0  0  0
    0.0570    0.0590   -3.6750 C   0  0  0  0  0
    1.0090    0.8050   -4.6120 C   0  0  0  0  0
    1.2650   -1.1100   -7.7950 N   0  0  0  0  0
    0.3940   -0.5090   -8.5810 C   0  0  0  0  0
   -0.3420    0.5680   -8.1270 C   0  0  0  0  0
   -0.1550    1.0150   -6.8280 C   0  0  0  0  0
    0.7690    0.3580   -6.0310 C   0  0  0  0  0
    1.4730   -0.7080   -6.5560 C   0  0  0  0  0
   -0.1500   -0.3910    2.9880 C   0  0  0  0  0
    0.8180   -0.9100    2.4730 O   0  0  0  0  0
   -0.0740    0.0990    4.3930 C   0  0  0  0  0
   -1.0380    0.6160    4.9050 O   0  0  0  0  0
    1.2050   -0.0490    5.1760 C   0  0  0  0  0
    2.3300    0.7010    4.4610 C   0  0  0  0  0
    1.5680   -1.5310    5.2820 C   0  0  0  0  0
    1.0150    0.5300    6.5790 C   0  0  0  0  0
    2.3140    0.3790    7.3730 C   0  0  0  0  0
   -1.3350   -1.7640    0.8200 H   0  0  0  0  0
   -2.6910    0.0990    3.8370 H   0  0  0  0  0
   -2.5130    1.4320    2.6550 H   0  0  0  0  0
   -3.4060   -1.1590   -0.0660 H   0  0  0  0  0
   -3.0250    0.5920    0.0090 H   0  0  0  0  0
   -3.9360   -1.2590    2.2830 H   0  0  0  0  0
   -4.5320    0.3840    1.8760 H   0  0  0  0  0
    0.1200    1.5860   -2.1560 H   0  0  0  0  0
    1.3310    0.2970   -1.9540 H   0  0  0  0  0
    0.2380   -1.0120   -3.7530 H   0  0  0  0  0
   -0.9720    0.2750   -3.9550 H   0  0  0  0  0
    0.8280    1.8780   -4.5340 H   0  0  0  0  0
    2.0390    0.5890   -4.3320 H   0  0  0  0  0
    0.2540   -0.8630   -9.5920 H   0  0  0  0  0
   -1.0540    1.0560   -8.7760 H   0  0  0  0  0
   -0.7160    1.8550   -6.4460 H   0  0  0  0  0
    2.1950   -1.2250   -5.9420 H   0  0  0  0  0
    2.0710    1.7570    4.3850 H   0  0  0  0  0
    3.2550    0.5930    5.0260 H   0  0  0  0  0
    2.4650    0.2880    3.4610 H   0  0  0  0  0
    0.7660   -2.0660    5.7910 H   0  0  0  0  0
    1.7030   -1.9450    4.2820 H   0  0  0  0  0
    2.4930   -1.6390    5.8470 H   0  0  0  0  0
    0.2130   -0.0040    7.0880 H   0  0  0  0  0
    0.7560    1.5860    6.5030 H   0  0  0  0  0
    2.1790    0.7920    8.3720 H   0  0  0  0  0
    2.5730   -0.6760    7.4480 H   0  0  0  0  0
    3.1160    0.9140    6.8630 H   0  0  0  0  0
  1  2  1  0  0  0
  1  4  1  0  0  0
  1  6  1  0  0  0
  1 27  1  0  0  0
  2  3  1  0  0  0
  2 18  1  0  0  0
  3  5  1  0  0  0
  3 28  1  0  0  0
  3 29  1  0  0  0
  4  5  1  0  0  0
  4 30  1  0  0  0
  4 31  1  0  0  0
  5 32  1  0  0  0
  5 33  1  0  0  0
  6  7  2  0  0  0
  6  8  1  0  0  0
  8  9  1  0  0  0
  9 10  1  0  0  0
  9 34  1  0  0  0
  9 35  1  0  0  0
 10 11  1  0  0  0
 10 36  1  0  0  0
 10 37  1  0  0  0
 11 16  1  0  0  0
 11 38  1  0  0  0
 11 39  1  0  0  0
 12 13  2  0  0  0
 12 17  1  0  0  0
 13 14  1  0  0  0
 13 40  1  0  0  0
 14 15  2  0  0  0
 14 41  1  0  0  0
 15 16  1  0  0  0
 15 42  1  0  0  0
 16 17  2  0  0  0
 17 43  1  0  0  0
 18 19  2  0  0  0
 18 20  1  0  0  0
 20 21  2  0  0  0
 20 22  1  0  0  0
 22 23  1  0  0  0
 22 24  1  0  0  0
 22 25  1  0  0  0
 23 44  1  0  0  0
 23 45  1  0  0  0
 23 46  1  0  0  0
 24 47  1  0  0  0
 24 48  1  0  0  0
 24 49  1  0  0  0
 25 26  1  0  0  0
 25 50  1  0  0  0
 25 51  1  0  0  0
 26 52  1  0  0  0
 26 53  1  0  0  0
 26 54  1  0  0  0
M  END
$$$$
