GRN
  CCTOOLS-1004241125

 23 23  0  0  1  0  0  0  0  0999 V2000
    1.2700   -1.1220    1.3640 O   0  0  0  0  0
    1.7670   -0.3290    0.5990 C   0  0  0  0  0
    0.9670    0.1970   -0.5650 C   0  0  0  0  0
    1.2670   -0.6390   -1.8110 C   0  0  0  0  0
    1.3310    1.5980   -0.8160 N   0  0  0  0  0
   -0.5030    0.1110   -0.2440 C   0  0  0  0  0
   -1.2140   -1.0310   -0.5630 C   0  0  0  0  0
   -2.5610   -1.1120   -0.2640 C   0  0  0  0  0
   -3.1970   -0.0530    0.3540 C   0  0  0  0  0
   -2.4860    1.0890    0.6750 C   0  0  0  0  0
   -1.1390    1.1710    0.3750 C   0  0  0  0  0
    3.0290    0.0860    0.7880 O   0  0  0  0  0
    0.9960   -1.6780   -1.6250 H   0  0  0  0  0
    0.6880   -0.2580   -2.6520 H   0  0  0  0  0
    2.3300   -0.5760   -2.0430 H   0  0  0  0  0
    0.8560    1.9550   -1.6310 H   0  0  0  0  0
    1.1420    2.1710   -0.0070 H   0  0  0  0  0
   -0.7170   -1.8590   -1.0470 H   0  0  0  0  0
   -3.1170   -2.0040   -0.5150 H   0  0  0  0  0
   -4.2500   -0.1160    0.5870 H   0  0  0  0  0
   -2.9830    1.9170    1.1580 H   0  0  0  0  0
   -0.5830    2.0610    0.6280 H   0  0  0  0  0
    3.5010   -0.2770    1.5500 H   0  0  0  0  0
  2  1  2  0  0  0
  2 12  1  0  0  0
  3  4  1  0  0  0
  3  2  1  0  0  0
  4 13  1  0  0  0
  4 14  1  0  0  0
  4 15  1  0  0  0
  5  3  1  0  0  0
  5 16  1  0  0  0
  5 17  1  0  0  0
  6 11  1  0  0  0
  6  3  1  0  0  0
  7  6  2  0  0  0
  7 18  1  0  0  0
  8  9  2  0  0  0
  8  7  1  0  0  0
  8 19  1  0  0  0
  9 10  1  0  0  0
  9 20  1  0  0  0
 10 11  2  0  0  0
 10 21  1  0  0  0
 11 22  1  0  0  0
 12 23  1  0  0  0
M  END
$$$$
