GS1
  CCTOOLS-0919241042

 24 24  0  0  1  0  0  0  0  0999 V2000
    0.7130    0.3080   -0.9740 C   0  0  0  0  0
    1.8380   -0.1410   -2.3240 S   0  0  0  0  0
   -0.6970   -0.1830   -1.3040 C   0  0  0  0  0
   -1.1320    0.3990   -2.5340 O   0  0  0  0  0
   -1.6470    0.2280   -0.1740 C   0  0  0  0  0
   -2.9350   -0.3490   -0.3950 O   0  0  0  0  0
   -1.0740   -0.2750    1.1550 C   0  0  0  0  0
   -1.8650    0.2230    2.2360 O   0  0  0  0  0
    0.3640    0.2250    1.2990 C   0  0  0  0  0
    1.1630   -0.2920    0.2380 O   0  0  0  0  0
    0.9330   -0.2430    2.6400 C   0  0  0  0  0
    2.2760    0.2260    2.7770 O   0  0  0  0  0
    0.7010    1.3920   -0.8580 H   0  0  0  0  0
    2.9870    0.3740   -1.8520 H   0  0  0  0  0
   -0.6920   -1.2690   -1.3970 H   0  0  0  0  0
   -0.5040    0.1190   -3.2130 H   0  0  0  0  0
   -1.7340    1.3150   -0.1470 H   0  0  0  0  0
   -3.2500   -0.0150   -1.2460 H   0  0  0  0  0
   -1.0860   -1.3650    1.1670 H   0  0  0  0  0
   -2.7630   -0.1080    2.1020 H   0  0  0  0  0
    0.3740    1.3140    1.2620 H   0  0  0  0  0
    0.9230   -1.3320    2.6780 H   0  0  0  0  0
    0.3240    0.1540    3.4520 H   0  0  0  0  0
    2.5960   -0.0900    3.6330 H   0  0  0  0  0
  1  2  1  0  0  0
  1  3  1  0  0  0
  1 10  1  0  0  0
  1 13  1  0  0  0
  2 14  1  0  0  0
  3  4  1  0  0  0
  3  5  1  0  0  0
  3 15  1  0  0  0
  4 16  1  0  0  0
  5  6  1  0  0  0
  5  7  1  0  0  0
  5 17  1  0  0  0
  6 18  1  0  0  0
  7  8  1  0  0  0
  7  9  1  0  0  0
  7 19  1  0  0  0
  8 20  1  0  0  0
  9 10  1  0  0  0
  9 11  1  0  0  0
  9 21  1  0  0  0
 11 12  1  0  0  0
 11 22  1  0  0  0
 11 23  1  0  0  0
 12 24  1  0  0  0
M  END
$$$$
