GSP
  CCTOOLS-0919241042

 48 50  0  0  1  0  0  0  0  0999 V2000
   -1.0260   -0.4840    6.9150 P   0  0  0  0  0
   -1.0150   -1.1980    5.4720 O   0  0  0  0  0
   -1.7720    1.2160    6.7610 S   0  0  0  0  0
   -1.9000   -1.3630    7.9420 O   0  0  0  0  0
    0.4820   -0.3600    7.4630 O   0  0  0  0  0
   -0.1280   -0.2700    4.5000 P   0  0  0  0  0
   -0.7350    1.0760    4.4150 O   0  0  0  0  0
    1.3650   -0.1500    5.0890 O   0  0  0  0  0
    0.8230    0.0460    2.1170 P   0  0  0  0  0
    0.2010    1.3880    2.0690 O   0  0  0  0  0
    2.3000    0.1610    2.7460 O   0  0  0  0  0
   -0.0740   -0.9280    3.0310 O   0  0  0  0  0
    0.9190   -0.5540    0.6270 O   0  0  0  0  0
    1.7240    0.3500   -0.1310 C   0  0  0  0  0
    1.8570   -0.1640   -1.5660 C   0  0  0  0  0
    0.5590   -0.2360   -2.1960 O   0  0  0  0  0
    2.6590    0.8360   -2.4270 C   0  0  0  0  0
    4.0230    0.4240   -2.5340 O   0  0  0  0  0
    1.9650    0.7830   -3.8090 C   0  0  0  0  0
    2.8810    0.3390   -4.8120 O   0  0  0  0  0
    0.8250   -0.2400   -3.6150 C   0  0  0  0  0
   -0.3660    0.1760   -4.3580 N   0  0  0  0  0
   -1.3610    0.9890   -3.8980 C   0  0  0  0  0
   -2.2630    1.1480   -4.8220 N   0  0  0  0  0
   -1.9020    0.4510   -5.9260 C   0  0  0  0  0
   -2.4800    0.2590   -7.2030 C   0  0  0  0  0
   -3.5390    0.7880   -7.4950 O   0  0  0  0  0
   -1.8270   -0.5190   -8.0930 N   0  0  0  0  0
   -0.6460   -1.1100   -7.7540 C   0  0  0  0  0
   -0.0080   -1.9000   -8.6770 N   0  0  0  0  0
   -0.0980   -0.9400   -6.5720 N   0  0  0  0  0
   -0.6850   -0.1770   -5.6410 C   0  0  0  0  0
   -1.8800   -0.9010    8.7910 H   0  0  0  0  0
    0.8310   -1.2600    7.5280 H   0  0  0  0  0
    1.7230   -1.0470    5.1280 H   0  0  0  0  0
    2.6690   -0.7320    2.7590 H   0  0  0  0  0
    2.7130    0.4230    0.3210 H   0  0  0  0  0
    1.2550    1.3340   -0.1400 H   0  0  0  0  0
    2.3370   -1.1420   -1.5740 H   0  0  0  0  0
    2.5960    1.8390   -2.0050 H   0  0  0  0  0
    4.4720    1.0830   -3.0800 H   0  0  0  0  0
    1.5590    1.7600   -4.0700 H   0  0  0  0  0
    3.5980    0.9870   -4.8420 H   0  0  0  0  0
    1.1460   -1.2300   -3.9380 H   0  0  0  0  0
   -1.3950    1.4330   -2.9140 H   0  0  0  0  0
   -2.2040   -0.6650   -8.9750 H   0  0  0  0  0
    0.8340   -2.3240   -8.4510 H   0  0  0  0  0
   -0.4010   -2.0390   -9.5520 H   0  0  0  0  0
  1  2  1  0  0  0
  1  3  2  0  0  0
  1  4  1  0  0  0
  1  5  1  0  0  0
  2  6  1  0  0  0
  4 33  1  0  0  0
  5 34  1  0  0  0
  6  7  2  0  0  0
  6  8  1  0  0  0
  6 12  1  0  0  0
  8 35  1  0  0  0
  9 10  2  0  0  0
  9 11  1  0  0  0
  9 12  1  0  0  0
  9 13  1  0  0  0
 11 36  1  0  0  0
 13 14  1  0  0  0
 14 15  1  0  0  0
 14 37  1  0  0  0
 14 38  1  0  0  0
 15 16  1  0  0  0
 15 17  1  0  0  0
 15 39  1  0  0  0
 16 21  1  0  0  0
 17 18  1  0  0  0
 17 19  1  0  0  0
 17 40  1  0  0  0
 18 41  1  0  0  0
 19 20  1  0  0  0
 19 21  1  0  0  0
 19 42  1  0  0  0
 20 43  1  0  0  0
 21 22  1  0  0  0
 21 44  1  0  0  0
 22 23  1  0  0  0
 22 32  1  0  0  0
 23 24  2  0  0  0
 23 45  1  0  0  0
 24 25  1  0  0  0
 25 26  1  0  0  0
 25 32  2  0  0  0
 26 27  2  0  0  0
 26 28  1  0  0  0
 28 29  1  0  0  0
 28 46  1  0  0  0
 29 30  1  0  0  0
 29 31  2  0  0  0
 30 47  1  0  0  0
 30 48  1  0  0  0
 31 32  1  0  0  0
M  END
$$$$
