GST
  CCTOOLS-0919241042

 39 38  0  0  1  0  0  0  0  0999 V2000
    4.3790    0.2400    0.0510 P   0  0  0  0  0
    4.6700    1.4810   -0.9330 O   0  0  0  0  0
    4.1610   -0.9840   -0.7520 O   0  0  0  0  0
    5.6390    0.0240    1.0290 O   0  0  0  0  0
    3.0650    0.5470    0.9280 O   0  0  0  0  0
    1.7950    0.2290   -0.0090 P   0  0  0  0  0
    1.8380    1.0930   -1.2100 O   0  0  0  0  0
    1.8330   -1.3170   -0.4580 O   0  0  0  0  0
    0.0090    0.6070    1.0690 S   0  0  0  0  0
   -1.2190    0.1760   -0.1940 C   0  0  0  0  0
   -1.2930   -1.3230   -0.3320 C   0  0  0  0  0
   -2.3850   -1.9600    0.0130 C   0  0  0  0  0
   -2.5160   -3.4360   -0.2610 C   0  0  0  0  0
   -3.5110   -1.2160    0.6850 C   0  0  0  0  0
   -4.5280   -0.7720   -0.3680 C   0  0  0  0  0
   -5.6540   -0.0280    0.3040 C   0  0  0  0  0
   -5.9650    1.1820   -0.0890 C   0  0  0  0  0
   -5.2900    1.7800   -1.2960 C   0  0  0  0  0
   -6.9980    1.9780    0.6670 C   0  0  0  0  0
    4.8060    2.2570   -0.3710 H   0  0  0  0  0
    6.4030   -0.1570    0.4650 H   0  0  0  0  0
    1.8030   -1.8440    0.3520 H   0  0  0  0  0
   -0.9280    0.6140   -1.1490 H   0  0  0  0  0
   -2.1950    0.5620    0.1000 H   0  0  0  0  0
   -0.4460   -1.8730   -0.7150 H   0  0  0  0  0
   -1.6100   -3.7960   -0.7480 H   0  0  0  0  0
   -2.6600   -3.9690    0.6780 H   0  0  0  0  0
   -3.3720   -3.6100   -0.9130 H   0  0  0  0  0
   -3.1120   -0.3400    1.1970 H   0  0  0  0  0
   -3.9980   -1.8690    1.4080 H   0  0  0  0  0
   -4.9270   -1.6480   -0.8800 H   0  0  0  0  0
   -4.0420   -0.1180   -1.0910 H   0  0  0  0  0
   -6.2040   -0.4930    1.1080 H   0  0  0  0  0
   -5.7380    2.7470   -1.5220 H   0  0  0  0  0
   -4.2270    1.9110   -1.0910 H   0  0  0  0  0
   -5.4150    1.1140   -2.1500 H   0  0  0  0  0
   -7.9850    1.7840    0.2470 H   0  0  0  0  0
   -6.9860    1.6830    1.7170 H   0  0  0  0  0
   -6.7700    3.0400    0.5860 H   0  0  0  0  0
  1  2  1  0  0  0
  1  3  2  0  0  0
  1  4  1  0  0  0
  1  5  1  0  0  0
  2 20  1  0  0  0
  4 21  1  0  0  0
  5  6  1  0  0  0
  6  7  2  0  0  0
  6  8  1  0  0  0
  6  9  1  0  0  0
  8 22  1  0  0  0
  9 10  1  0  0  0
 10 11  1  0  0  0
 10 23  1  0  0  0
 10 24  1  0  0  0
 11 12  2  0  0  0
 11 25  1  0  0  0
 12 13  1  0  0  0
 12 14  1  0  0  0
 13 26  1  0  0  0
 13 27  1  0  0  0
 13 28  1  0  0  0
 14 15  1  0  0  0
 14 29  1  0  0  0
 14 30  1  0  0  0
 15 16  1  0  0  0
 15 31  1  0  0  0
 15 32  1  0  0  0
 16 17  2  0  0  0
 16 33  1  0  0  0
 17 18  1  0  0  0
 17 19  1  0  0  0
 18 34  1  0  0  0
 18 35  1  0  0  0
 18 36  1  0  0  0
 19 37  1  0  0  0
 19 38  1  0  0  0
 19 39  1  0  0  0
M  END
$$$$
