GTX
  CCTOOLS-0919241042

 56 55  0  0  1  0  0  0  0  0999 V2000
   -5.3450    2.3850    1.7590 N   0  3  0  0  0
   -4.8940    2.8180    0.4290 C   0  0  0  0  0
   -6.0920    3.1330   -0.4300 C   0  0  0  0  0
   -7.1760    2.6850   -0.1420 O   0  0  0  0  0
   -5.9530    3.9110   -1.5150 O   0  0  0  0  0
   -4.0790    1.6990   -0.2220 C   0  0  0  0  0
   -2.8000    1.4650    0.5830 C   0  0  0  0  0
   -1.9970    0.3620   -0.0580 C   0  0  0  0  0
   -2.4080   -0.1820   -1.0610 O   0  0  0  0  0
   -0.8230   -0.0180    0.4820 N   0  0  0  0  0
   -0.0430   -1.0900   -0.1420 C   0  0  0  0  0
   -0.5370   -2.4250    0.3530 C   0  0  0  0  0
   -1.4520   -2.4760    1.1480 O   0  0  0  0  0
    1.4340   -0.9260    0.2250 C   0  0  0  0  0
    2.0300    0.6810   -0.3700 S   0  0  0  0  0
    3.7540    0.6040    0.1880 C   0  0  0  0  0
    4.4780    1.8900   -0.2140 C   0  0  0  0  0
    5.9320    1.8250    0.2560 C   0  0  0  0  0
    6.6560    3.1120   -0.1450 C   0  0  0  0  0
    8.1110    3.0470    0.3250 C   0  0  0  0  0
    8.8350    4.3330   -0.0770 C   0  0  0  0  0
    0.0360   -3.5620   -0.0890 N   0  0  0  0  0
   -0.4450   -4.8590    0.3920 C   0  0  0  0  0
    0.3570   -5.9620   -0.2500 C   0  0  0  0  0
    1.2410   -5.6910   -1.0280 O   0  0  0  0  0
    0.0910   -7.2440    0.0440 O   0  0  0  0  0
   -5.8830    3.1240    2.1880 H   0  0  0  0  0
   -5.9200    1.5610    1.6670 H   0  0  0  0  0
   -4.5440    2.1750    2.3340 H   0  0  0  0  0
   -4.2740    3.7090    0.5280 H   0  0  0  0  0
   -6.7220    4.1130   -2.0660 H   0  0  0  0  0
   -3.8200    1.9850   -1.2420 H   0  0  0  0  0
   -4.6700    0.7830   -0.2400 H   0  0  0  0  0
   -3.0590    1.1790    1.6030 H   0  0  0  0  0
   -2.2090    2.3810    0.6020 H   0  0  0  0  0
   -0.4940    0.4170    1.2840 H   0  0  0  0  0
   -0.1560   -1.0390   -1.2250 H   0  0  0  0  0
    2.0140   -1.7230   -0.2390 H   0  0  0  0  0
    1.5470   -0.9770    1.3080 H   0  0  0  0  0
    4.2480   -0.2510   -0.2750 H   0  0  0  0  0
    3.7800    0.4950    1.2720 H   0  0  0  0  0
    3.9840    2.7450    0.2490 H   0  0  0  0  0
    4.4510    1.9980   -1.2980 H   0  0  0  0  0
    6.4260    0.9710   -0.2060 H   0  0  0  0  0
    5.9590    1.7170    1.3410 H   0  0  0  0  0
    6.1630    3.9660    0.3170 H   0  0  0  0  0
    6.6300    3.2200   -1.2300 H   0  0  0  0  0
    8.6050    2.1920   -0.1380 H   0  0  0  0  0
    8.1370    2.9380    1.4090 H   0  0  0  0  0
    9.8710    4.2870    0.2580 H   0  0  0  0  0
    8.8080    4.4410   -1.1610 H   0  0  0  0  0
    8.3410    5.1880    0.3860 H   0  0  0  0  0
    0.7670   -3.5210   -0.7250 H   0  0  0  0  0
   -0.3320   -4.9110    1.4750 H   0  0  0  0  0
   -1.4970   -4.9760    0.1310 H   0  0  0  0  0
    0.6060   -7.9520   -0.3680 H   0  0  0  0  0
  1  2  1  0  0  0
  1 27  1  0  0  0
  1 28  1  0  0  0
  1 29  1  0  0  0
  2  3  1  0  0  0
  2  6  1  0  0  0
  2 30  1  0  0  0
  3  4  2  0  0  0
  3  5  1  0  0  0
  5 31  1  0  0  0
  6  7  1  0  0  0
  6 32  1  0  0  0
  6 33  1  0  0  0
  7  8  1  0  0  0
  7 34  1  0  0  0
  7 35  1  0  0  0
  8  9  2  0  0  0
  8 10  1  0  0  0
 10 11  1  0  0  0
 10 36  1  0  0  0
 11 12  1  0  0  0
 11 14  1  0  0  0
 11 37  1  0  0  0
 12 13  2  0  0  0
 12 22  1  0  0  0
 14 15  1  0  0  0
 14 38  1  0  0  0
 14 39  1  0  0  0
 15 16  1  0  0  0
 16 17  1  0  0  0
 16 40  1  0  0  0
 16 41  1  0  0  0
 17 18  1  0  0  0
 17 42  1  0  0  0
 17 43  1  0  0  0
 18 19  1  0  0  0
 18 44  1  0  0  0
 18 45  1  0  0  0
 19 20  1  0  0  0
 19 46  1  0  0  0
 19 47  1  0  0  0
 20 21  1  0  0  0
 20 48  1  0  0  0
 20 49  1  0  0  0
 21 50  1  0  0  0
 21 51  1  0  0  0
 21 52  1  0  0  0
 22 23  1  0  0  0
 22 53  1  0  0  0
 23 24  1  0  0  0
 23 54  1  0  0  0
 23 55  1  0  0  0
 24 25  2  0  0  0
 24 26  1  0  0  0
 26 56  1  0  0  0
M  CHG  1   1   1
M  END
$$$$
