GXL
  CCTOOLS-0919241043

 24 24  0  0  1  0  0  0  0  0999 V2000
    1.4240    0.4890   -0.3820 C   0  0  0  0  0
    0.3920    0.4980   -1.5120 C   0  0  0  0  0
   -0.6510   -0.5920   -1.2440 C   0  0  0  0  0
   -1.2220   -0.3870    0.1630 C   0  0  0  0  0
   -0.0670   -0.3300    1.1660 C   0  0  0  0  0
   -0.6290   -0.1610    2.5790 C   0  0  0  0  0
    2.0430   -0.7970   -0.3160 O   0  0  0  0  0
    1.0440    0.2420   -2.7570 O   0  0  0  0  0
   -1.7000   -0.4990   -2.2090 O   0  0  0  0  0
   -1.9580    0.8360    0.2060 O   0  0  0  0  0
    0.7830    0.7710    0.8590 O   0  0  0  0  0
    0.4470   -0.1120    3.5170 O   0  0  0  0  0
    2.1830    1.2460   -0.5790 H   0  0  0  0  0
   -0.0980    1.4700   -1.5500 H   0  0  0  0  0
   -0.1800   -1.5730   -1.3090 H   0  0  0  0  0
   -1.8810   -1.2180    0.4140 H   0  0  0  0  0
    0.5040   -1.2560    1.1120 H   0  0  0  0  0
   -1.2780   -1.0050    2.8150 H   0  0  0  0  0
   -1.2020    0.7640    2.6340 H   0  0  0  0  0
    2.6880   -0.7600    0.4020 H   0  0  0  0  0
    1.6950    0.9470   -2.8820 H   0  0  0  0  0
   -1.2930   -0.6210   -3.0780 H   0  0  0  0  0
   -2.6700    0.7580   -0.4430 H   0  0  0  0  0
    0.0500   -0.0050    4.3930 H   0  0  0  0  0
  1  2  1  0  0  0
  1  7  1  0  0  0
  1 11  1  0  0  0
  1 13  1  0  0  0
  2  3  1  0  0  0
  2  8  1  0  0  0
  2 14  1  0  0  0
  3  4  1  0  0  0
  3  9  1  0  0  0
  3 15  1  0  0  0
  4  5  1  0  0  0
  4 10  1  0  0  0
  4 16  1  0  0  0
  5  6  1  0  0  0
  5 11  1  0  0  0
  5 17  1  0  0  0
  6 12  1  0  0  0
  6 18  1  0  0  0
  6 19  1  0  0  0
  7 20  1  0  0  0
  8 21  1  0  0  0
  9 22  1  0  0  0
 10 23  1  0  0  0
 12 24  1  0  0  0
M  END
$$$$
