H2U
  CCTOOLS-1004241126

 36 37  0  0  1  0  0  0  0  0999 V2000
   -1.0870    0.0310   -3.9890 P   0  0  0  0  0
   -1.6780   -1.2720   -3.6130 O   0  0  0  0  0
   -2.2350    0.9860   -4.5930 O   0  0  0  0  0
    0.0580   -0.1970   -5.0970 O   0  0  0  0  0
   -0.4440    0.7250   -2.6870 O   0  0  0  0  0
    0.5610   -0.1640   -2.1990 C   0  0  0  0  0
    1.2160    0.4370   -0.9550 C   0  0  0  0  0
    0.2360    0.6150    0.0930 O   0  0  0  0  0
    2.2550   -0.5380   -0.3590 C   0  0  0  0  0
    3.5740   -0.1830   -0.7780 O   0  0  0  0  0
    0.9970    0.7020    1.3180 C   0  0  0  0  0
    2.1070   -0.3610    1.1680 C   0  0  0  0  0
    3.3310    0.1040    1.7390 O   0  0  0  0  0
    0.1480    0.3940    2.4710 N   0  0  0  0  0
   -0.5240   -0.7660    2.5070 C   0  0  0  0  0
   -0.3320   -1.5900    1.6330 O   0  0  0  0  0
   -1.3970   -1.0450    3.4890 N   0  0  0  0  0
   -1.8180   -0.0850    4.3330 C   0  0  0  0  0
   -2.5460   -0.3680    5.2600 O   0  0  0  0  0
   -1.3840    1.3430    4.1250 C   0  0  0  0  0
    0.0400    1.3600    3.5660 C   0  0  0  0  0
   -2.5930    0.5340   -5.3700 H   0  0  0  0  0
    0.4150    0.6740   -5.3130 H   0  0  0  0  0
    1.3170   -0.3160   -2.9700 H   0  0  0  0  0
    0.1060   -1.1210   -1.9430 H   0  0  0  0  0
    1.6880    1.3890   -1.1980 H   0  0  0  0  0
    2.0260   -1.5630   -0.6490 H   0  0  0  0  0
    4.1800   -0.8050   -0.3530 H   0  0  0  0  0
    1.4350    1.6940    1.4230 H   0  0  0  0  0
    1.8030   -1.2990    1.6330 H   0  0  0  0  0
    3.9980   -0.5720    1.5620 H   0  0  0  0  0
   -1.7310   -1.9500    3.5910 H   0  0  0  0  0
   -1.4080    1.8740    5.0760 H   0  0  0  0  0
   -2.0570    1.8290    3.4190 H   0  0  0  0  0
    0.7430    1.0940    4.3560 H   0  0  0  0  0
    0.2730    2.3580    3.1940 H   0  0  0  0  0
  1  2  2  0  0  0
  1  3  1  0  0  0
  1  4  1  0  0  0
  1  5  1  0  0  0
  3 22  1  0  0  0
  4 23  1  0  0  0
  5  6  1  0  0  0
  6  7  1  0  0  0
  6 24  1  0  0  0
  6 25  1  0  0  0
  7  8  1  0  0  0
  7  9  1  0  0  0
  7 26  1  0  0  0
  8 11  1  0  0  0
  9 10  1  0  0  0
  9 12  1  0  0  0
  9 27  1  0  0  0
 10 28  1  0  0  0
 11 12  1  0  0  0
 11 14  1  0  0  0
 11 29  1  0  0  0
 12 13  1  0  0  0
 12 30  1  0  0  0
 13 31  1  0  0  0
 14 15  1  0  0  0
 14 21  1  0  0  0
 15 16  2  0  0  0
 15 17  1  0  0  0
 17 18  1  0  0  0
 17 32  1  0  0  0
 18 19  2  0  0  0
 18 20  1  0  0  0
 20 21  1  0  0  0
 20 33  1  0  0  0
 20 34  1  0  0  0
 21 35  1  0  0  0
 21 36  1  0  0  0
M  END
$$$$
