H4B
  CCTOOLS-0919241044

 32 33  0  0  1  0  0  0  0  0999 V2000
   -1.2070    0.5640   -2.2160 N   0  0  0  0  0
   -0.2130    0.6360   -3.0750 C   0  0  0  0  0
   -0.4060    1.2850   -4.2690 N   0  0  0  0  0
    1.0000    0.0820   -2.8090 N   0  0  0  0  0
    1.2110   -0.5620   -1.6410 C   0  0  0  0  0
    2.2970   -1.0640   -1.3920 O   0  0  0  0  0
    0.1580   -0.6420   -0.7230 C   0  0  0  0  0
   -1.0590   -0.0590   -1.0410 C   0  0  0  0  0
    0.3260   -1.3060    0.5120 N   0  0  0  0  0
   -2.1120   -0.1250   -0.1420 N   0  0  0  0  0
   -0.6620   -1.0660    1.5750 C   0  0  0  0  0
   -2.0610   -1.1130    0.9440 C   0  0  0  0  0
   -0.4230    0.3080    2.2020 C   0  0  0  0  0
   -1.3960    0.5420    3.2230 O   0  0  0  0  0
    0.9780    0.3530    2.8140 C   0  0  0  0  0
    1.2170    1.7280    3.4410 C   0  0  0  0  0
    1.9510    0.1190    1.7930 O   0  0  0  0  0
   -1.2670    1.6830   -4.4710 H   0  0  0  0  0
    0.3180    1.3450   -4.9110 H   0  0  0  0  0
    1.7170    0.1510   -3.4600 H   0  0  0  0  0
    1.0740   -1.9070    0.6550 H   0  0  0  0  0
   -2.8720    0.4710   -0.2290 H   0  0  0  0  0
   -0.5760   -1.8390    2.3390 H   0  0  0  0  0
   -2.2510   -2.1090    0.5450 H   0  0  0  0  0
   -2.8110   -0.8700    1.6970 H   0  0  0  0  0
   -0.5090    1.0770    1.4350 H   0  0  0  0  0
   -1.2850   -0.1580    3.8800 H   0  0  0  0  0
    1.0650   -0.4150    3.5810 H   0  0  0  0  0
    2.2160    1.7600    3.8760 H   0  0  0  0  0
    1.1300    2.4970    2.6730 H   0  0  0  0  0
    0.4750    1.9060    4.2190 H   0  0  0  0  0
    1.8400    0.8200    1.1360 H   0  0  0  0  0
  1  2  2  0  0  0
  1  8  1  0  0  0
  2  3  1  0  0  0
  2  4  1  0  0  0
  3 18  1  0  0  0
  3 19  1  0  0  0
  4  5  1  0  0  0
  4 20  1  0  0  0
  5  6  2  0  0  0
  5  7  1  0  0  0
  7  8  2  0  0  0
  7  9  1  0  0  0
  8 10  1  0  0  0
  9 11  1  0  0  0
  9 21  1  0  0  0
 10 12  1  0  0  0
 10 22  1  0  0  0
 11 12  1  0  0  0
 11 13  1  0  0  0
 11 23  1  0  0  0
 12 24  1  0  0  0
 12 25  1  0  0  0
 13 14  1  0  0  0
 13 15  1  0  0  0
 13 26  1  0  0  0
 14 27  1  0  0  0
 15 16  1  0  0  0
 15 17  1  0  0  0
 15 28  1  0  0  0
 16 29  1  0  0  0
 16 30  1  0  0  0
 16 31  1  0  0  0
 17 32  1  0  0  0
M  END
$$$$
