H64
  CCTOOLS-0919241044

 49 52  0  0  0  0  0  0  0  0999 V2000
   -6.2000    3.3610    0.8940 C   0  0  0  0  0
   -6.5550    1.9780    0.3410 C   0  0  0  0  0
   -7.6360    2.1200   -0.7310 C   0  0  0  0  0
   -5.3570    1.3650   -0.2490 N   0  0  0  0  0
   -4.6320    0.7120    0.8500 C   0  0  0  0  0
   -3.3670    0.0490    0.3030 C   0  0  0  0  0
   -2.6120   -0.6310    1.4470 C   0  0  0  0  0
   -1.4000   -1.2660    0.9230 N   0  0  0  0  0
   -1.2930   -2.5550    0.4560 C   0  0  0  0  0
   -2.1370   -3.5700    0.3110 N   0  0  0  0  0
   -1.7280   -4.7180   -0.1880 C   0  0  0  0  0
   -0.4800   -4.9200   -0.5700 N   0  0  0  0  0
    0.4340   -3.9600   -0.4680 C   0  0  0  0  0
    1.7410   -4.1810   -0.8710 N   0  0  0  0  0
    0.0450   -2.7180    0.0590 C   0  0  0  0  0
    0.6830   -1.5470    0.3040 N   0  0  0  0  0
   -0.1640   -0.6870    0.8130 C   0  0  0  0  0
    0.2270    0.9650    1.2860 S   0  0  0  0  0
    1.8960    1.0550    0.7290 C   0  0  0  0  0
    2.9390    0.9740    1.6430 C   0  0  0  0  0
    4.2500    1.0440    1.2050 C   0  0  0  0  0
    5.4340    0.9910    1.8830 O   0  0  0  0  0
    6.4200    1.5220    0.9780 C   0  0  0  0  0
    5.8760    1.2390   -0.3250 O   0  0  0  0  0
    4.5220    1.1970   -0.1530 C   0  0  0  0  0
    3.4790    1.2770   -1.0620 C   0  0  0  0  0
    2.1700    1.2020   -0.6250 C   0  0  0  0  0
    0.7500    1.3120   -1.8690 BR  0  0  0  0  0
   -5.8300    3.9910    0.0850 H   0  0  0  0  0
   -7.0880    3.8160    1.3320 H   0  0  0  0  0
   -5.4290    3.2600    1.6580 H   0  0  0  0  0
   -6.9250    1.3480    1.1500 H   0  0  0  0  0
   -7.2660    2.7500   -1.5400 H   0  0  0  0  0
   -7.8890    1.1350   -1.1250 H   0  0  0  0  0
   -8.5250    2.5750   -0.2940 H   0  0  0  0  0
   -5.6790    0.6300   -0.8610 H   0  0  0  0  0
   -4.3580    1.4570    1.5970 H   0  0  0  0  0
   -5.2700   -0.0440    1.3070 H   0  0  0  0  0
   -3.6410   -0.6950   -0.4450 H   0  0  0  0  0
   -2.7290    0.8060   -0.1550 H   0  0  0  0  0
   -2.3380    0.1140    2.1940 H   0  0  0  0  0
   -3.2500   -1.3870    1.9040 H   0  0  0  0  0
   -2.4390   -5.5250   -0.2880 H   0  0  0  0  0
    2.3990   -3.4730   -0.7910 H   0  0  0  0  0
    1.9980   -5.0430   -1.2330 H   0  0  0  0  0
    2.7270    0.8560    2.6950 H   0  0  0  0  0
    6.5320    2.5960    1.1210 H   0  0  0  0  0
    7.3760    1.0150    1.1120 H   0  0  0  0  0
    3.6900    1.3960   -2.1150 H   0  0  0  0  0
  1  2  1  0  0  0
  1 29  1  0  0  0
  1 30  1  0  0  0
  1 31  1  0  0  0
  2  3  1  0  0  0
  2  4  1  0  0  0
  2 32  1  0  0  0
  3 33  1  0  0  0
  3 34  1  0  0  0
  3 35  1  0  0  0
  4  5  1  0  0  0
  4 36  1  0  0  0
  5  6  1  0  0  0
  5 37  1  0  0  0
  5 38  1  0  0  0
  6  7  1  0  0  0
  6 39  1  0  0  0
  6 40  1  0  0  0
  7  8  1  0  0  0
  7 41  1  0  0  0
  7 42  1  0  0  0
  8  9  1  0  0  0
  8 17  1  0  0  0
  9 10  1  0  0  0
  9 15  2  0  0  0
 10 11  2  0  0  0
 11 12  1  0  0  0
 11 43  1  0  0  0
 12 13  2  0  0  0
 13 14  1  0  0  0
 13 15  1  0  0  0
 14 44  1  0  0  0
 14 45  1  0  0  0
 15 16  1  0  0  0
 16 17  2  0  0  0
 17 18  1  0  0  0
 18 19  1  0  0  0
 19 20  1  0  0  0
 19 27  2  0  0  0
 20 21  2  0  0  0
 20 46  1  0  0  0
 21 22  1  0  0  0
 21 25  1  0  0  0
 22 23  1  0  0  0
 23 24  1  0  0  0
 23 47  1  0  0  0
 23 48  1  0  0  0
 24 25  1  0  0  0
 25 26  2  0  0  0
 26 27  1  0  0  0
 26 49  1  0  0  0
 27 28  1  0  0  0
M  END
$$$$
