HAB
  CCTOOLS-0919241044

 28 29  0  0  0  0  0  0  0  0999 V2000
    0.6060    0.0010   -1.6980 C   0  0  0  0  0
   -0.3310   -0.0010   -2.7510 C   0  0  0  0  0
    0.1180    0.0070   -4.0710 C   0  0  0  0  0
    1.4720    0.0080   -4.3390 C   0  0  0  0  0
    2.3930    0.0060   -3.3040 C   0  0  0  0  0
    1.9700    0.0020   -1.9910 C   0  0  0  0  0
    0.6190   -0.0070    1.8550 C   0  0  0  0  0
    1.5520   -0.0090    2.8980 C   0  0  0  0  0
    1.1190   -0.0120    4.2050 C   0  0  0  0  0
   -0.2410   -0.0120    4.4890 C   0  0  0  0  0
   -1.1720   -0.0150    3.4560 C   0  0  0  0  0
   -0.7490   -0.0070    2.1460 C   0  0  0  0  0
   -1.7770   -0.0020   -2.4590 C   0  0  0  0  0
    0.1810   -0.0010   -0.4000 N   0  0  0  0  0
    1.0430   -0.0030    0.5590 N   0  0  0  0  0
   -2.1640   -0.0100   -1.3070 O   0  0  0  0  0
   -2.6680    0.0050   -3.4690 O   0  0  0  0  0
   -0.6630   -0.0150    5.7790 O   0  0  0  0  0
   -0.5920    0.0090   -4.8840 H   0  0  0  0  0
    1.8160    0.0110   -5.3630 H   0  0  0  0  0
    3.4500    0.0070   -3.5270 H   0  0  0  0  0
    2.6950    0.0010   -1.1900 H   0  0  0  0  0
    2.6090   -0.0080    2.6790 H   0  0  0  0  0
    1.8370   -0.0140    5.0110 H   0  0  0  0  0
   -2.2280   -0.0160    3.6820 H   0  0  0  0  0
   -1.4730   -0.0050    1.3440 H   0  0  0  0  0
   -3.6160    0.0040   -3.2780 H   0  0  0  0  0
   -0.7500    0.9090    6.0470 H   0  0  0  0  0
  1  2  1  0  0  0
  1  6  2  0  0  0
  1 14  1  0  0  0
  2  3  2  0  0  0
  2 13  1  0  0  0
  3  4  1  0  0  0
  3 19  1  0  0  0
  4  5  2  0  0  0
  4 20  1  0  0  0
  5  6  1  0  0  0
  5 21  1  0  0  0
  6 22  1  0  0  0
  7  8  1  0  0  0
  7 12  2  0  0  0
  7 15  1  0  0  0
  8  9  2  0  0  0
  8 23  1  0  0  0
  9 10  1  0  0  0
  9 24  1  0  0  0
 10 11  2  0  0  0
 10 18  1  0  0  0
 11 12  1  0  0  0
 11 25  1  0  0  0
 12 26  1  0  0  0
 13 16  2  0  0  0
 13 17  1  0  0  0
 14 15  2  0  0  0
 17 27  1  0  0  0
 18 28  1  0  0  0
M  END
$$$$
