HAR
  CCTOOLS-1004241127

 27 26  0  0  1  0  0  0  0  0999 V2000
    1.7820   -0.2830    2.7880 N   0  0  0  0  0
    0.4770    0.3900    2.7900 C   0  0  0  0  0
   -0.2780    0.0200    4.0400 C   0  0  0  0  0
   -0.0990   -1.0570    4.5570 O   0  0  0  0  0
   -0.3230   -0.0450    1.5610 C   0  0  0  0  0
    0.4430    0.3300    0.2920 C   0  0  0  0  0
   -0.3570   -0.1060   -0.9350 C   0  0  0  0  0
    0.3770    0.2540   -2.1510 N   0  0  0  0  0
   -0.1500   -0.0400   -3.3850 C   0  0  0  0  0
    0.5390    0.2970   -4.5260 N   0  0  0  0  0
   -1.3030   -0.6400   -3.4750 N   0  0  0  0  0
   -0.0040   -0.0060   -5.7980 O   0  0  0  0  0
   -1.1500    0.8860    4.5790 O   0  0  0  0  0
    2.2060   -0.0910    1.8930 H   0  0  0  0  0
    1.5960   -1.2740    2.8150 H   0  0  0  0  0
    0.6250    1.4700    2.7620 H   0  0  0  0  0
   -0.4720   -1.1250    1.5890 H   0  0  0  0  0
   -1.2920    0.4540    1.5620 H   0  0  0  0  0
    0.5920    1.4100    0.2640 H   0  0  0  0  0
    1.4110   -0.1690    0.2910 H   0  0  0  0  0
   -0.5060   -1.1850   -0.9070 H   0  0  0  0  0
   -1.3250    0.3940   -0.9340 H   0  0  0  0  0
    1.2350    0.7000   -2.0840 H   0  0  0  0  0
    1.3970    0.7440   -4.4590 H   0  0  0  0  0
   -1.6760   -0.8490   -4.3460 H   0  0  0  0  0
    0.6290    0.3110   -6.4550 H   0  0  0  0  0
   -1.6350    0.6490    5.3810 H   0  0  0  0  0
  1  2  1  0  0  0
  1 14  1  0  0  0
  1 15  1  0  0  0
  2  3  1  0  0  0
  2  5  1  0  0  0
  2 16  1  0  0  0
  3  4  2  0  0  0
  3 13  1  0  0  0
  5  6  1  0  0  0
  5 17  1  0  0  0
  5 18  1  0  0  0
  6  7  1  0  0  0
  6 19  1  0  0  0
  6 20  1  0  0  0
  7  8  1  0  0  0
  7 21  1  0  0  0
  7 22  1  0  0  0
  8  9  1  0  0  0
  8 23  1  0  0  0
  9 10  1  0  0  0
  9 11  2  0  0  0
 10 12  1  0  0  0
 10 24  1  0  0  0
 11 25  1  0  0  0
 12 26  1  0  0  0
 13 27  1  0  0  0
M  END
$$$$
