HB1
  CCTOOLS-0919241027

 43 53  0  0  1  0  0  0  0  0999 V2000
  -19.1780  -33.8930   -4.9380 O   0  0  0  0  0
  -20.2500  -33.7090   -4.7200 C   0  0  0  0  0
  -22.0280  -33.3500   -4.5320 RU  0  0  0  0  0
  -23.7050  -31.8900   -4.8500 C   0  0  0  0  0
  -22.4720  -31.3630   -5.3550 C   0  0  0  0  0
  -22.0160  -32.2110   -6.3700 C   0  0  0  0  0
  -22.9440  -33.2700   -6.5290 C   0  0  0  0  0
  -23.9880  -33.0640   -5.5900 C   0  0  0  0  0
  -21.8380  -32.8510   -2.4550 N   0  0  0  0  0
  -21.5200  -31.6600   -1.8710 C   0  0  0  0  0
  -22.5230  -35.1790   -3.6510 N   0  0  0  0  0
  -22.9370  -36.4470   -3.9370 C   0  0  0  0  0
  -23.2060  -37.1770   -2.7290 C   0  0  0  0  0
  -23.6240  -38.5050   -2.7980 C   0  0  0  0  0
  -23.7480  -39.0640   -4.0570 C   0  0  0  0  0
  -23.4870  -38.3320   -5.2240 C   0  0  0  0  0
  -23.0860  -37.0150   -5.1850 C   0  0  0  0  0
  -22.9440  -36.2740   -1.6600 C   0  0  0  0  0
  -22.5570  -35.0730   -2.3220 C   0  0  0  0  0
  -22.9680  -36.2080   -0.2590 C   0  0  0  0  0
  -23.3610  -37.2390    0.7500 C   0  0  0  0  0
  -23.7250  -38.3880    0.5880 O   0  0  0  0  0
  -22.6340  -35.0210    0.4260 C   0  0  0  0  0
  -22.8090  -35.2610    1.8630 C   0  0  0  0  0
  -23.2230  -36.5940    1.9830 N   0  0  0  0  0
  -22.6430  -34.5160    2.8070 O   0  0  0  0  0
  -22.2380  -33.7990   -0.2400 C   0  0  0  0  0
  -22.1920  -33.8810   -1.6510 C   0  0  0  0  0
  -21.8590  -32.5490    0.3500 C   0  0  0  0  0
  -21.5140  -31.4940   -0.4710 C   0  0  0  0  0
  -21.8800  -30.5760   -4.8640 H   0  0  0  0  0
  -21.0160  -32.1770   -6.8270 H   0  0  0  0  0
  -22.7700  -34.1940   -7.1000 H   0  0  0  0  0
  -24.7150  -33.8330   -5.2880 H   0  0  0  0  0
  -21.2650  -30.8190   -2.5000 H   0  0  0  0  0
  -21.5630  -35.4580   -3.6390 H   0  0  0  0  0
  -23.8420  -39.0740   -1.9060 H   0  0  0  0  0
  -24.0550  -40.0960   -4.1440 H   0  0  0  0  0
  -23.6040  -38.8160   -6.1830 H   0  0  0  0  0
  -22.8970  -36.4540   -6.0880 H   0  0  0  0  0
  -23.4020  -37.0390    2.8610 H   0  0  0  0  0
  -21.8440  -32.4340    1.4240 H   0  0  0  0  0
  -21.2400  -30.5420   -0.0410 H   0  0  0  0  0
  1  2  3  0  0  0
  2  3  1  0  0  0
  3  4  1  0  0  0
  3  5  1  0  0  0
  3  6  1  0  0  0
  3  7  1  0  0  0
  3  8  1  0  0  0
  3  9  1  0  0  0
  3 11  1  0  0  0
  4  5  2  0  0  0
  4  8  2  0  0  0
  5  6  1  0  0  0
  5 31  1  0  0  0
  6  7  2  0  0  0
  6 32  1  0  0  0
  7  8  1  0  0  0
  7 33  1  0  0  0
  8 34  1  0  0  0
  9 10  2  0  0  0
  9 28  1  0  0  0
 10 30  1  0  0  0
 10 35  1  0  0  0
 11 12  1  0  0  0
 11 19  1  0  0  0
 11 36  1  0  0  0
 12 13  1  0  0  0
 12 17  2  0  0  0
 13 14  2  0  0  0
 13 18  1  0  0  0
 14 15  1  0  0  0
 14 37  1  0  0  0
 15 16  2  0  0  0
 15 38  1  0  0  0
 16 17  1  0  0  0
 16 39  1  0  0  0
 17 40  1  0  0  0
 18 19  1  0  0  0
 18 20  2  0  0  0
 19 28  2  0  0  0
 20 21  1  0  0  0
 20 23  1  0  0  0
 21 22  2  0  0  0
 21 25  1  0  0  0
 23 24  1  0  0  0
 23 27  2  0  0  0
 24 25  1  0  0  0
 24 26  2  0  0  0
 25 41  1  0  0  0
 27 28  1  0  0  0
 27 29  1  0  0  0
 29 30  2  0  0  0
 29 42  1  0  0  0
 30 43  1  0  0  0
M  END
$$$$
