HBI
  CCTOOLS-0919241027

 30 31  0  0  1  0  0  0  0  0999 V2000
   -1.0520    0.2590   -2.8000 N   0  0  0  0  0
   -0.0860    0.0040   -4.8910 N   0  0  0  0  0
    0.0180    0.0010   -3.5260 C   0  0  0  0  0
    1.2230   -0.2660   -2.9550 N   0  0  0  0  0
    1.3570   -0.2820   -1.6110 C   0  0  0  0  0
    2.4340   -0.5220   -1.0920 O   0  0  0  0  0
    0.2200   -0.0120   -0.8230 C   0  0  0  0  0
   -0.9900    0.2660   -1.4710 C   0  0  0  0  0
   -2.0990    0.5470   -0.6940 N   0  0  0  0  0
   -2.1570   -0.0660    0.6440 C   0  0  0  0  0
   -0.7830   -0.0250    1.2630 C   0  0  0  0  0
    0.2800   -0.0210    0.5380 N   0  0  0  0  0
   -0.6520    0.0050    2.7640 C   0  0  0  0  0
   -1.2620   -1.1610    3.3190 O   0  0  0  0  0
    0.8280    0.0370    3.1450 C   0  0  0  0  0
    1.4380    1.2040    2.5900 O   0  0  0  0  0
    0.9620    0.0690    4.6690 C   0  0  0  0  0
   -0.9390    0.1940   -5.3120 H   0  0  0  0  0
    0.6920   -0.1830   -5.4380 H   0  0  0  0  0
    1.9920   -0.4490   -3.5180 H   0  0  0  0  0
   -2.8100    1.1220   -1.0180 H   0  0  0  0  0
   -2.4940   -1.0990    0.5570 H   0  0  0  0  0
   -2.8510    0.4920    1.2720 H   0  0  0  0  0
   -1.1470    0.8940    3.1540 H   0  0  0  0  0
   -0.7950   -1.9230    2.9490 H   0  0  0  0  0
    1.3240   -0.8510    2.7550 H   0  0  0  0  0
    0.9720    1.9660    2.9600 H   0  0  0  0  0
    2.0170    0.0920    4.9410 H   0  0  0  0  0
    0.4670    0.9580    5.0590 H   0  0  0  0  0
    0.4970   -0.8210    5.0930 H   0  0  0  0  0
  1  3  2  0  0  0
  1  8  1  0  0  0
  2  3  1  0  0  0
  2 18  1  0  0  0
  2 19  1  0  0  0
  3  4  1  0  0  0
  4  5  1  0  0  0
  4 20  1  0  0  0
  5  6  2  0  0  0
  5  7  1  0  0  0
  7  8  2  0  0  0
  7 12  1  0  0  0
  8  9  1  0  0  0
  9 10  1  0  0  0
  9 21  1  0  0  0
 10 11  1  0  0  0
 10 22  1  0  0  0
 10 23  1  0  0  0
 11 12  2  0  0  0
 11 13  1  0  0  0
 13 14  1  0  0  0
 13 15  1  0  0  0
 13 24  1  0  0  0
 14 25  1  0  0  0
 15 16  1  0  0  0
 15 17  1  0  0  0
 15 26  1  0  0  0
 16 27  1  0  0  0
 17 28  1  0  0  0
 17 29  1  0  0  0
 17 30  1  0  0  0
M  END
$$$$
