HC2
  CCTOOLS-0919241027

 75 78  0  0  1  0  0  0  0  0999 V2000
    3.8860   -1.5850   -1.2050 C   0  0  0  0  0
    5.0730   -2.3330   -0.5950 C   0  0  0  0  0
    6.1310   -1.3300   -0.1290 C   0  0  0  0  0
    5.5500   -0.4580    0.9880 C   0  0  0  0  0
    4.2720    0.1860    0.4780 C   0  0  0  0  0
    4.1400    1.4740    0.5990 C   0  0  0  0  0
    2.9260    2.2190    0.1260 C   0  0  0  0  0
    1.7190    1.2750    0.1370 C   0  0  0  0  0
    2.0430    0.0380   -0.7120 C   0  0  0  0  0
    3.2330   -0.7080   -0.1330 C   0  0  0  0  0
    0.8550   -0.9100   -0.8440 C   0  0  0  0  0
   -0.4000   -0.1840   -1.3530 C   0  0  0  0  0
   -0.6850    0.9970   -0.4240 C   0  0  0  0  0
    0.5270    1.9670   -0.4990 C   0  0  0  0  0
   -0.0090    3.1940    0.2490 C   0  0  0  0  0
   -1.4660    3.3100   -0.2750 C   0  0  0  0  0
   -1.8710    1.8950   -0.7580 C   0  0  0  0  0
   -0.7880    0.5070    1.0220 C   0  0  0  0  0
    2.6870   -1.6240    0.9640 C   0  0  0  0  0
   -3.1220    1.4200   -0.0150 C   0  0  0  0  0
   -4.3150    2.2900   -0.4150 C   0  0  0  0  0
   -3.4090   -0.0380   -0.3810 C   0  0  0  0  0
   -4.7260   -0.4750    0.2620 C   0  0  0  0  0
   -5.0130   -1.9330   -0.1040 C   0  0  0  0  0
   -6.3300   -2.3710    0.5390 C   0  0  0  0  0
   -7.4840   -1.5670   -0.0640 C   0  0  0  0  0
   -6.5550   -3.8610    0.2780 C   0  0  0  0  0
    7.2730   -2.0350    0.3610 O   0  0  0  0  0
   -2.9070    1.5240    1.3940 O   0  0  0  0  0
    4.2340   -0.9590   -2.0260 H   0  0  0  0  0
    3.1570   -2.3040   -1.5800 H   0  0  0  0  0
    5.5080   -2.9960   -1.3420 H   0  0  0  0  0
    4.7320   -2.9210    0.2570 H   0  0  0  0  0
    6.4260   -0.6980   -0.9670 H   0  0  0  0  0
    6.2680    0.3170    1.2600 H   0  0  0  0  0
    5.3290   -1.0750    1.8580 H   0  0  0  0  0
    4.9400    2.0330    1.0610 H   0  0  0  0  0
    3.0940    2.5830   -0.8880 H   0  0  0  0  0
    2.7340    3.0620    0.7900 H   0  0  0  0  0
    1.4810    0.9780    1.1590 H   0  0  0  0  0
    2.3120    0.3930   -1.7070 H   0  0  0  0  0
    1.1110   -1.7070   -1.5420 H   0  0  0  0  0
    0.6410   -1.3490    0.1310 H   0  0  0  0  0
   -0.2170    0.2220   -2.3480 H   0  0  0  0  0
   -1.2430   -0.8740   -1.3820 H   0  0  0  0  0
    0.7450    2.2210   -1.5360 H   0  0  0  0  0
    0.5660    4.0830   -0.0090 H   0  0  0  0  0
    0.0020    3.0250    1.3250 H   0  0  0  0  0
   -1.5110    4.0160   -1.1040 H   0  0  0  0  0
   -2.1270    3.6350    0.5290 H   0  0  0  0  0
   -2.0500    1.9000   -1.8330 H   0  0  0  0  0
    0.1870    0.1540    1.3560 H   0  0  0  0  0
   -1.1160    1.3270    1.6610 H   0  0  0  0  0
   -1.5090   -0.3080    1.0780 H   0  0  0  0  0
    3.5170   -2.1000    1.4850 H   0  0  0  0  0
    2.1030   -1.0350    1.6710 H   0  0  0  0  0
    2.0530   -2.3880    0.5160 H   0  0  0  0  0
   -5.1780    2.0260    0.1950 H   0  0  0  0  0
   -4.0670    3.3400   -0.2590 H   0  0  0  0  0
   -4.5490    2.1250   -1.4670 H   0  0  0  0  0
   -2.5990   -0.6700   -0.0170 H   0  0  0  0  0
   -3.4840   -0.1320   -1.4650 H   0  0  0  0  0
   -5.5360    0.1570   -0.1020 H   0  0  0  0  0
   -4.6500   -0.3810    1.3450 H   0  0  0  0  0
   -4.2030   -2.5650    0.2600 H   0  0  0  0  0
   -5.0880   -2.0280   -1.1870 H   0  0  0  0  0
   -6.2870   -2.1930    1.6140 H   0  0  0  0  0
   -7.5280   -1.7450   -1.1390 H   0  0  0  0  0
   -8.4230   -1.8790    0.3940 H   0  0  0  0  0
   -7.3240   -0.5050    0.1220 H   0  0  0  0  0
   -6.5990   -4.0390   -0.7970 H   0  0  0  0  0
   -5.7330   -4.4340    0.7080 H   0  0  0  0  0
   -7.4940   -4.1730    0.7360 H   0  0  0  0  0
    7.9130   -1.3670    0.6430 H   0  0  0  0  0
   -2.5160    0.6870    1.6790 H   0  0  0  0  0
  1  2  1  0  0  0
  1 10  1  0  0  0
  1 30  1  0  0  0
  1 31  1  0  0  0
  2  3  1  0  0  0
  2 32  1  0  0  0
  2 33  1  0  0  0
  3  4  1  0  0  0
  3 28  1  0  0  0
  3 34  1  0  0  0
  4  5  1  0  0  0
  4 35  1  0  0  0
  4 36  1  0  0  0
  5  6  2  0  0  0
  5 10  1  0  0  0
  6  7  1  0  0  0
  6 37  1  0  0  0
  7  8  1  0  0  0
  7 38  1  0  0  0
  7 39  1  0  0  0
  8  9  1  0  0  0
  8 14  1  0  0  0
  8 40  1  0  0  0
  9 10  1  0  0  0
  9 11  1  0  0  0
  9 41  1  0  0  0
 10 19  1  0  0  0
 11 12  1  0  0  0
 11 42  1  0  0  0
 11 43  1  0  0  0
 12 13  1  0  0  0
 12 44  1  0  0  0
 12 45  1  0  0  0
 13 14  1  0  0  0
 13 17  1  0  0  0
 13 18  1  0  0  0
 14 15  1  0  0  0
 14 46  1  0  0  0
 15 16  1  0  0  0
 15 47  1  0  0  0
 15 48  1  0  0  0
 16 17  1  0  0  0
 16 49  1  0  0  0
 16 50  1  0  0  0
 17 20  1  0  0  0
 17 51  1  0  0  0
 18 52  1  0  0  0
 18 53  1  0  0  0
 18 54  1  0  0  0
 19 55  1  0  0  0
 19 56  1  0  0  0
 19 57  1  0  0  0
 20 21  1  0  0  0
 20 22  1  0  0  0
 20 29  1  0  0  0
 21 58  1  0  0  0
 21 59  1  0  0  0
 21 60  1  0  0  0
 22 23  1  0  0  0
 22 61  1  0  0  0
 22 62  1  0  0  0
 23 24  1  0  0  0
 23 63  1  0  0  0
 23 64  1  0  0  0
 24 25  1  0  0  0
 24 65  1  0  0  0
 24 66  1  0  0  0
 25 26  1  0  0  0
 25 27  1  0  0  0
 25 67  1  0  0  0
 26 68  1  0  0  0
 26 69  1  0  0  0
 26 70  1  0  0  0
 27 71  1  0  0  0
 27 72  1  0  0  0
 27 73  1  0  0  0
 28 74  1  0  0  0
 29 75  1  0  0  0
M  END
$$$$
