HC3
  CCTOOLS-0919241027

 75 78  0  0  1  0  0  0  0  0999 V2000
   -0.2960    0.3040   -0.9260 C   0  0  0  0  0
   -0.2490   -0.0500    0.5620 C   0  0  0  0  0
    0.3860    1.0980    1.3480 C   0  0  0  0  0
    1.7590    1.4070    0.7320 C   0  0  0  0  0
    2.6470    0.1670    0.6750 C   0  0  0  0  0
    3.9590    0.5060   -0.0120 C   0  0  0  0  0
    3.6160    1.4210   -1.1890 C   0  0  0  0  0
    4.8760    1.2780    0.9400 C   0  0  0  0  0
    6.1840    1.6160    0.2220 C   0  0  0  0  0
    6.9130    0.3250   -0.1570 C   0  0  0  0  0
    8.1730    0.6460   -0.7510 O   0  0  0  0  0
    6.0650   -0.4660   -1.1570 C   0  0  0  0  0
    4.6910   -0.6890   -0.5480 C   0  0  0  0  0
    4.2170   -1.9010   -0.5230 C   0  0  0  0  0
    2.8770   -2.2420    0.0590 C   0  0  0  0  0
    1.9630   -1.0150   -0.0250 C   0  0  0  0  0
    0.6660   -1.2960    0.7120 C   0  0  0  0  0
   -0.2130   -2.4020    0.1180 C   0  0  0  0  0
   -1.6190   -2.0720    0.6870 C   0  0  0  0  0
   -1.6110   -0.5590    1.0220 C   0  0  0  0  0
   -2.7290    0.1580    0.2640 C   0  0  0  0  0
   -2.6620    1.6580    0.5550 C   0  0  0  0  0
   -4.0840   -0.3890    0.7160 C   0  0  0  0  0
   -5.1950    0.2370   -0.1290 C   0  0  0  0  0
   -6.5500   -0.3100    0.3230 C   0  0  0  0  0
   -7.6610    0.3170   -0.5230 C   0  0  0  0  0
   -9.0230   -0.1340    0.0100 C   0  0  0  0  0
   -7.5620    1.8420   -0.4450 C   0  0  0  0  0
   -7.5190   -0.1020   -1.8820 O   0  0  0  0  0
    0.7030    0.5740   -1.2670 H   0  0  0  0  0
   -0.6540   -0.5550   -1.4920 H   0  0  0  0  0
   -0.9720    1.1460   -1.0770 H   0  0  0  0  0
    0.5090    0.7580    2.3770 H   0  0  0  0  0
   -0.2420    1.9880    1.3230 H   0  0  0  0  0
    2.2540    2.1710    1.3320 H   0  0  0  0  0
    1.6170    1.7880   -0.2790 H   0  0  0  0  0
    2.8650   -0.1470    1.6960 H   0  0  0  0  0
    4.5130    1.6060   -1.7790 H   0  0  0  0  0
    2.8620    0.9430   -1.8130 H   0  0  0  0  0
    3.2290    2.3680   -0.8120 H   0  0  0  0  0
    5.0900    0.6650    1.8160 H   0  0  0  0  0
    4.3840    2.1990    1.2520 H   0  0  0  0  0
    6.8180    2.2090    0.8810 H   0  0  0  0  0
    5.9660    2.1870   -0.6800 H   0  0  0  0  0
    7.0760   -0.2760    0.7370 H   0  0  0  0  0
    8.5990   -0.1930   -0.9740 H   0  0  0  0  0
    6.5370   -1.4270   -1.3600 H   0  0  0  0  0
    5.9680    0.0990   -2.0840 H   0  0  0  0  0
    4.8160   -2.6970   -0.9410 H   0  0  0  0  0
    2.9970   -2.5360    1.1020 H   0  0  0  0  0
    2.4350   -3.0650   -0.5030 H   0  0  0  0  0
    1.7580   -0.7690   -1.0670 H   0  0  0  0  0
    0.8650   -1.4960    1.7650 H   0  0  0  0  0
    0.1200   -3.3830    0.4570 H   0  0  0  0  0
   -0.2150   -2.3500   -0.9710 H   0  0  0  0  0
   -1.8040   -2.6540    1.5900 H   0  0  0  0  0
   -2.3850   -2.2850   -0.0590 H   0  0  0  0  0
   -1.7270   -0.4100    2.0960 H   0  0  0  0  0
   -2.6080   -0.0100   -0.8060 H   0  0  0  0  0
   -1.6960    2.0480    0.2330 H   0  0  0  0  0
   -3.4590    2.1700    0.0150 H   0  0  0  0  0
   -2.7830    1.8260    1.6250 H   0  0  0  0  0
   -4.0990   -1.4720    0.5910 H   0  0  0  0  0
   -4.2440   -0.1430    1.7660 H   0  0  0  0  0
   -5.1800    1.3200   -0.0040 H   0  0  0  0  0
   -5.0360   -0.0090   -1.1790 H   0  0  0  0  0
   -6.5650   -1.3930    0.1970 H   0  0  0  0  0
   -6.7100   -0.0630    1.3730 H   0  0  0  0  0
   -9.1320    0.1850    1.0460 H   0  0  0  0  0
   -9.8140    0.3130   -0.5920 H   0  0  0  0  0
   -9.0930   -1.2200   -0.0450 H   0  0  0  0  0
   -6.5920    2.1620   -0.8240 H   0  0  0  0  0
   -8.3540    2.2880   -1.0470 H   0  0  0  0  0
   -7.6710    2.1610    0.5910 H   0  0  0  0  0
   -7.5870   -1.0660   -1.8860 H   0  0  0  0  0
  1  2  1  0  0  0
  1 30  1  0  0  0
  1 31  1  0  0  0
  1 32  1  0  0  0
  2  3  1  0  0  0
  2 17  1  0  0  0
  2 20  1  0  0  0
  3  4  1  0  0  0
  3 33  1  0  0  0
  3 34  1  0  0  0
  4  5  1  0  0  0
  4 35  1  0  0  0
  4 36  1  0  0  0
  5  6  1  0  0  0
  5 16  1  0  0  0
  5 37  1  0  0  0
  6  7  1  0  0  0
  6  8  1  0  0  0
  6 13  1  0  0  0
  7 38  1  0  0  0
  7 39  1  0  0  0
  7 40  1  0  0  0
  8  9  1  0  0  0
  8 41  1  0  0  0
  8 42  1  0  0  0
  9 10  1  0  0  0
  9 43  1  0  0  0
  9 44  1  0  0  0
 10 11  1  0  0  0
 10 12  1  0  0  0
 10 45  1  0  0  0
 11 46  1  0  0  0
 12 13  1  0  0  0
 12 47  1  0  0  0
 12 48  1  0  0  0
 13 14  2  0  0  0
 14 15  1  0  0  0
 14 49  1  0  0  0
 15 16  1  0  0  0
 15 50  1  0  0  0
 15 51  1  0  0  0
 16 17  1  0  0  0
 16 52  1  0  0  0
 17 18  1  0  0  0
 17 53  1  0  0  0
 18 19  1  0  0  0
 18 54  1  0  0  0
 18 55  1  0  0  0
 19 20  1  0  0  0
 19 56  1  0  0  0
 19 57  1  0  0  0
 20 21  1  0  0  0
 20 58  1  0  0  0
 21 22  1  0  0  0
 21 23  1  0  0  0
 21 59  1  0  0  0
 22 60  1  0  0  0
 22 61  1  0  0  0
 22 62  1  0  0  0
 23 24  1  0  0  0
 23 63  1  0  0  0
 23 64  1  0  0  0
 24 25  1  0  0  0
 24 65  1  0  0  0
 24 66  1  0  0  0
 25 26  1  0  0  0
 25 67  1  0  0  0
 25 68  1  0  0  0
 26 27  1  0  0  0
 26 28  1  0  0  0
 26 29  1  0  0  0
 27 69  1  0  0  0
 27 70  1  0  0  0
 27 71  1  0  0  0
 28 72  1  0  0  0
 28 73  1  0  0  0
 28 74  1  0  0  0
 29 75  1  0  0  0
M  END
$$$$
