HC7
  CCTOOLS-0919241027

 69 71  0  0  1  0  0  0  0  0999 V2000
   -7.7830    0.1550   -0.7950 C   0  0  0  0  0
   -9.2340   -0.0310   -0.6570 N   0  3  0  0  0
   -9.7510    0.8900    0.3640 C   0  0  0  0  0
   -9.8880    0.2460   -1.9430 C   0  0  0  0  0
   -9.5130   -1.4160   -0.2540 C   0  0  0  0  0
   -8.8320   -1.7020    1.0870 C   0  0  0  0  0
   -7.4270   -1.4640    0.9610 O   0  0  0  0  0
   -7.1050   -0.1340    0.5470 C   0  0  0  0  0
   -7.5690    0.7970    1.5270 O   0  0  0  0  0
   -5.6110   -0.0020    0.3940 C   0  0  0  0  0
   -5.0020    1.2210    0.6120 C   0  0  0  0  0
   -3.6340    1.3470    0.4740 C   0  0  0  0  0
   -4.8540   -1.1060    0.0430 C   0  0  0  0  0
   -3.4870   -0.9910   -0.0980 C   0  0  0  0  0
   -2.8670    0.2400    0.1140 C   0  0  0  0  0
   -1.3980    0.3690   -0.0350 C   0  0  0  0  0
   -0.7810    1.6010    0.1890 C   0  0  0  0  0
    0.5780    1.7230    0.0510 C   0  0  0  0  0
   -0.6340   -0.7420   -0.3950 C   0  0  0  0  0
    0.7250   -0.6240   -0.5340 C   0  0  0  0  0
    1.3460    0.6110   -0.3150 C   0  0  0  0  0
    2.8030    0.7390   -0.4640 C   0  0  0  0  0
    3.3400    1.8090   -0.2690 O   0  0  0  0  0
    3.6280   -0.4580   -0.8580 C   0  0  0  0  0
    5.0520   -0.0950   -0.8510 N   0  3  0  0  0
    5.2890    0.9750   -1.8300 C   0  0  0  0  0
    5.4310    0.3740    0.4880 C   0  0  0  0  0
    5.8580   -1.2700   -1.2060 C   0  0  0  0  0
    7.3430   -0.9070   -1.1430 C   0  0  0  0  0
    7.7190   -0.6680    0.2140 O   0  0  0  0  0
    9.2130   -0.2610    0.6530 P   0  0  0  0  0
   10.2170   -1.4790    0.3320 O   0  0  0  0  0
    9.6390    0.9400   -0.1000 O   0  0  0  0  0
    9.2430    0.0570    2.2310 O   0  0  0  0  0
   -7.3990   -0.5290   -1.5510 H   0  0  0  0  0
   -7.5750    1.1820   -1.0940 H   0  0  0  0  0
   -9.4400    0.5500    1.3510 H   0  0  0  0  0
   -9.3580    1.8910    0.1830 H   0  0  0  0  0
  -10.8400    0.9130    0.3140 H   0  0  0  0  0
  -10.9640    0.1070   -1.8410 H   0  0  0  0  0
   -9.6800    1.2730   -2.2420 H   0  0  0  0  0
   -9.5030   -0.4380   -2.7000 H   0  0  0  0  0
  -10.5900   -1.5550   -0.1510 H   0  0  0  0  0
   -9.1290   -2.1000   -1.0100 H   0  0  0  0  0
   -9.2450   -1.0460    1.8530 H   0  0  0  0  0
   -9.0020   -2.7410    1.3670 H   0  0  0  0  0
   -7.1800    0.6730    2.4030 H   0  0  0  0  0
   -5.5970    2.0780    0.8890 H   0  0  0  0  0
   -3.1600    2.3020    0.6430 H   0  0  0  0  0
   -5.3350   -2.0590   -0.1220 H   0  0  0  0  0
   -2.8970   -1.8540   -0.3720 H   0  0  0  0  0
   -1.3740    2.4580    0.4710 H   0  0  0  0  0
    1.0550    2.6760    0.2250 H   0  0  0  0  0
   -1.1130   -1.6950   -0.5640 H   0  0  0  0  0
    1.3160   -1.4850   -0.8120 H   0  0  0  0  0
    3.4560   -1.2670   -0.1490 H   0  0  0  0  0
    3.3410   -0.7840   -1.8580 H   0  0  0  0  0
    4.6370    1.8200   -1.6090 H   0  0  0  0  0
    6.3290    1.2940   -1.7740 H   0  0  0  0  0
    5.0760    0.6040   -2.8330 H   0  0  0  0  0
    5.4520   -0.4710    1.1760 H   0  0  0  0  0
    6.4190    0.8320    0.4460 H   0  0  0  0  0
    4.7040    1.1080    0.8350 H   0  0  0  0  0
    5.6520   -2.0780   -0.5030 H   0  0  0  0  0
    5.6060   -1.5940   -2.2160 H   0  0  0  0  0
    7.9360   -1.7300   -1.5440 H   0  0  0  0  0
    7.5230   -0.0090   -1.7340 H   0  0  0  0  0
    9.9980   -2.3000    0.7920 H   0  0  0  0  0
   10.1140    0.3090    2.5650 H   0  0  0  0  0
  1  8  1  0  0  0
  1 35  1  0  0  0
  1 36  1  0  0  0
  2  5  1  0  0  0
  2  1  1  0  0  0
  3  2  1  0  0  0
  3 37  1  0  0  0
  3 38  1  0  0  0
  3 39  1  0  0  0
  4  2  1  0  0  0
  4 40  1  0  0  0
  4 41  1  0  0  0
  4 42  1  0  0  0
  5  6  1  0  0  0
  5 43  1  0  0  0
  5 44  1  0  0  0
  6  7  1  0  0  0
  6 45  1  0  0  0
  6 46  1  0  0  0
  8  7  1  0  0  0
  8 10  1  0  0  0
  9  8  1  0  0  0
  9 47  1  0  0  0
 10 11  2  0  0  0
 10 13  1  0  0  0
 11 12  1  0  0  0
 11 48  1  0  0  0
 12 15  2  0  0  0
 12 49  1  0  0  0
 13 14  2  0  0  0
 13 50  1  0  0  0
 14 15  1  0  0  0
 14 51  1  0  0  0
 15 16  1  0  0  0
 16 19  2  0  0  0
 16 17  1  0  0  0
 17 18  2  0  0  0
 17 52  1  0  0  0
 18 21  1  0  0  0
 18 53  1  0  0  0
 19 20  1  0  0  0
 19 54  1  0  0  0
 20 21  2  0  0  0
 20 55  1  0  0  0
 21 22  1  0  0  0
 22 23  2  0  0  0
 22 24  1  0  0  0
 24 25  1  0  0  0
 24 56  1  0  0  0
 24 57  1  0  0  0
 25 26  1  0  0  0
 25 28  1  0  0  0
 26 58  1  0  0  0
 26 59  1  0  0  0
 26 60  1  0  0  0
 27 25  1  0  0  0
 27 61  1  0  0  0
 27 62  1  0  0  0
 27 63  1  0  0  0
 28 29  1  0  0  0
 28 64  1  0  0  0
 28 65  1  0  0  0
 29 66  1  0  0  0
 29 67  1  0  0  0
 30 31  1  0  0  0
 30 29  1  0  0  0
 31 34  1  0  0  0
 31 32  1  0  0  0
 32 68  1  0  0  0
 33 31  2  0  0  0
 34 69  1  0  0  0
M  CHG  1   2   1
M  CHG  1  25   1
M  END
$$$$
