HC9
  CCTOOLS-0919241027

 75 78  0  0  1  0  0  0  0  0999 V2000
   -4.6720    1.3240   -1.0230 C   0  0  0  0  0
   -8.0540    0.7500    0.5110 O   0  0  0  0  0
   -6.0070    1.6850   -0.3680 C   0  0  0  0  0
    4.3110   -1.7700   -0.1260 O   0  0  0  0  0
   -6.7720    0.4080   -0.0200 C   0  0  0  0  0
   -5.9860   -0.3920    1.0220 C   0  0  0  0  0
   -4.5870   -0.6390    0.4820 C   0  0  0  0  0
   -4.1290   -1.8560    0.4900 C   0  0  0  0  0
   -2.7670   -2.2220   -0.0230 C   0  0  0  0  0
   -1.8410   -1.0060    0.0920 C   0  0  0  0  0
   -2.4870    0.1620   -0.6640 C   0  0  0  0  0
   -3.8130    0.5410   -0.0250 C   0  0  0  0  0
   -1.5710    1.3820   -0.7140 C   0  0  0  0  0
   -0.1870    1.0320   -1.2810 C   0  0  0  0  0
    0.3900   -0.0640   -0.4050 C   0  0  0  0  0
   -0.5160   -1.3120   -0.5820 C   0  0  0  0  0
    0.3310   -2.4070    0.0760 C   0  0  0  0  0
    1.7650   -2.0860   -0.4250 C   0  0  0  0  0
    1.7750   -0.5790   -0.7870 C   0  0  0  0  0
    0.3810    0.3810    1.0580 C   0  0  0  0  0
   -3.5090    1.4580    1.1620 C   0  0  0  0  0
    2.8520    0.1520    0.0160 C   0  0  0  0  0
    2.7680    1.6530   -0.2670 C   0  0  0  0  0
    4.2320   -0.3680   -0.3910 C   0  0  0  0  0
    5.3100    0.3640    0.4120 C   0  0  0  0  0
    6.6930   -0.0650   -0.0820 C   0  0  0  0  0
    7.7710    0.6670    0.7210 C   0  0  0  0  0
    9.1510    0.1470    0.3130 C   0  0  0  0  0
    7.6870    2.1680    0.4370 C   0  0  0  0  0
   -4.8540    0.7100   -1.9050 H   0  0  0  0  0
   -4.1510    2.2350   -1.3150 H   0  0  0  0  0
   -8.5960   -0.0130    0.7540 H   0  0  0  0  0
   -5.8210    2.2560    0.5420 H   0  0  0  0  0
   -6.5980    2.2860   -1.0580 H   0  0  0  0  0
    4.1810   -2.0020    0.8030 H   0  0  0  0  0
   -6.9000   -0.1950   -0.9190 H   0  0  0  0  0
   -5.9260    0.1750    1.9520 H   0  0  0  0  0
   -6.4820   -1.3450    1.2050 H   0  0  0  0  0
   -4.7590   -2.6410    0.8850 H   0  0  0  0  0
   -2.3640   -3.0440    0.5680 H   0  0  0  0  0
   -2.8410   -2.5250   -1.0670 H   0  0  0  0  0
   -1.6940   -0.7420    1.1400 H   0  0  0  0  0
   -2.6790   -0.1560   -1.6890 H   0  0  0  0  0
   -2.0300    2.1450   -1.3430 H   0  0  0  0  0
   -1.4530    1.7780    0.2940 H   0  0  0  0  0
   -0.2840    0.6760   -2.3060 H   0  0  0  0  0
    0.4590    1.9100   -1.2510 H   0  0  0  0  0
   -0.6700   -1.5230   -1.6410 H   0  0  0  0  0
    0.2770   -2.3350    1.1630 H   0  0  0  0  0
    0.0160   -3.3940   -0.2620 H   0  0  0  0  0
    2.4910   -2.2850    0.3640 H   0  0  0  0  0
    1.9960   -2.6840   -1.3060 H   0  0  0  0  0
    1.9450   -0.4490   -1.8550 H   0  0  0  0  0
   -0.6440    0.5870    1.3690 H   0  0  0  0  0
    0.7980   -0.4100    1.6820 H   0  0  0  0  0
    0.9820    1.2840    1.1670 H   0  0  0  0  0
   -4.4430    1.7660    1.6310 H   0  0  0  0  0
   -2.8970    0.9220    1.8870 H   0  0  0  0  0
   -2.9700    2.3390    0.8120 H   0  0  0  0  0
    2.6960   -0.0260    1.0800 H   0  0  0  0  0
    1.7500    2.0000   -0.0890 H   0  0  0  0  0
    3.4550    2.1860    0.3910 H   0  0  0  0  0
    3.0400    1.8430   -1.3060 H   0  0  0  0  0
    4.3880   -0.1890   -1.4550 H   0  0  0  0  0
    5.1940    1.4400    0.2800 H   0  0  0  0  0
    5.2080    0.1150    1.4680 H   0  0  0  0  0
    6.8090   -1.1400    0.0500 H   0  0  0  0  0
    6.7950    0.1850   -1.1380 H   0  0  0  0  0
    7.6150    0.4890    1.7850 H   0  0  0  0  0
    9.3070    0.3260   -0.7510 H   0  0  0  0  0
    9.9190    0.6680    0.8860 H   0  0  0  0  0
    9.2110   -0.9220    0.5150 H   0  0  0  0  0
    8.4550    2.6890    1.0100 H   0  0  0  0  0
    7.8430    2.3460   -0.6270 H   0  0  0  0  0
    6.7030    2.5380    0.7280 H   0  0  0  0  0
  1  3  1  0  0  0
  1 12  1  0  0  0
  1 30  1  0  0  0
  1 31  1  0  0  0
  2  5  1  0  0  0
  2 32  1  0  0  0
  3  5  1  0  0  0
  3 33  1  0  0  0
  3 34  1  0  0  0
  4 24  1  0  0  0
  4 35  1  0  0  0
  5  6  1  0  0  0
  5 36  1  0  0  0
  6  7  1  0  0  0
  6 37  1  0  0  0
  6 38  1  0  0  0
  7  8  2  0  0  0
  7 12  1  0  0  0
  8  9  1  0  0  0
  8 39  1  0  0  0
  9 10  1  0  0  0
  9 40  1  0  0  0
  9 41  1  0  0  0
 10 11  1  0  0  0
 10 16  1  0  0  0
 10 42  1  0  0  0
 11 12  1  0  0  0
 11 13  1  0  0  0
 11 43  1  0  0  0
 12 21  1  0  0  0
 13 14  1  0  0  0
 13 44  1  0  0  0
 13 45  1  0  0  0
 14 15  1  0  0  0
 14 46  1  0  0  0
 14 47  1  0  0  0
 15 16  1  0  0  0
 15 19  1  0  0  0
 15 20  1  0  0  0
 16 17  1  0  0  0
 16 48  1  0  0  0
 17 18  1  0  0  0
 17 49  1  0  0  0
 17 50  1  0  0  0
 18 19  1  0  0  0
 18 51  1  0  0  0
 18 52  1  0  0  0
 19 22  1  0  0  0
 19 53  1  0  0  0
 20 54  1  0  0  0
 20 55  1  0  0  0
 20 56  1  0  0  0
 21 57  1  0  0  0
 21 58  1  0  0  0
 21 59  1  0  0  0
 22 23  1  0  0  0
 22 24  1  0  0  0
 22 60  1  0  0  0
 23 61  1  0  0  0
 23 62  1  0  0  0
 23 63  1  0  0  0
 24 25  1  0  0  0
 24 64  1  0  0  0
 25 26  1  0  0  0
 25 65  1  0  0  0
 25 66  1  0  0  0
 26 27  1  0  0  0
 26 67  1  0  0  0
 26 68  1  0  0  0
 27 28  1  0  0  0
 27 29  1  0  0  0
 27 69  1  0  0  0
 28 70  1  0  0  0
 28 71  1  0  0  0
 28 72  1  0  0  0
 29 73  1  0  0  0
 29 74  1  0  0  0
 29 75  1  0  0  0
M  END
$$$$
