HCL
  CCTOOLS-1004241127

 22 22  0  0  1  0  0  0  0  0999 V2000
    2.3940   -0.3510    0.4770 C   0  0  0  0  0
    1.8110   -1.7200   -1.4440 N   0  0  0  0  0
    2.8710   -1.3500    0.9620 O   0  0  0  0  0
    0.3630    2.3000   -0.4240 CL  0  0  0  0  0
    0.0840   -0.3910   -0.3690 C   0  0  0  0  0
   -0.5360    0.8330   -0.1980 C   0  0  0  0  0
   -1.8780    0.8890    0.1570 C   0  0  0  0  0
   -2.4870    2.0920    0.3260 O   0  0  0  0  0
   -2.5950   -0.2830    0.3380 C   0  0  0  0  0
   -2.6720   -2.6600    0.3410 O   0  0  0  0  0
   -0.6300   -1.5610   -0.1890 C   0  0  0  0  0
   -1.9710   -1.5090    0.1640 C   0  0  0  0  0
    1.5380   -0.4490   -0.7600 C   0  0  0  0  0
    2.6230    0.8450    1.0410 O   0  0  0  0  0
    2.7640   -1.7570   -1.7730 H   0  0  0  0  0
    1.6040   -2.5050   -0.8450 H   0  0  0  0  0
   -2.8890    2.4460   -0.4790 H   0  0  0  0  0
   -3.6380   -0.2420    0.6140 H   0  0  0  0  0
   -3.1000   -2.9870   -0.4620 H   0  0  0  0  0
   -0.1440   -2.5150   -0.3240 H   0  0  0  0  0
    1.7690    0.3800   -1.4280 H   0  0  0  0  0
    3.1750    0.8570    1.8360 H   0  0  0  0  0
  1  3  2  0  0  0
  1 13  1  0  0  0
  1 14  1  0  0  0
  2 13  1  0  0  0
  2 15  1  0  0  0
  2 16  1  0  0  0
  4  6  1  0  0  0
  5  6  2  0  0  0
  5 11  1  0  0  0
  5 13  1  0  0  0
  6  7  1  0  0  0
  7  8  1  0  0  0
  7  9  2  0  0  0
  8 17  1  0  0  0
  9 12  1  0  0  0
  9 18  1  0  0  0
 10 12  1  0  0  0
 10 19  1  0  0  0
 11 12  2  0  0  0
 11 20  1  0  0  0
 13 21  1  0  0  0
 14 22  1  0  0  0
M  END
$$$$
