HEA
  CCTOOLS-0919241027

116123  0  0  1  0  0  0  0  0999 V2000
   -2.0350   -0.7780   -0.6370 FE  0  0  0  0  0
   -4.0340    1.5310    0.1740 C   0  0  0  0  0
   -3.1610   -2.6810    1.6190 C   0  0  0  0  0
   -0.1150   -3.1190   -1.5400 C   0  0  0  0  0
   -1.0910    1.0370   -3.0480 C   0  0  0  0  0
   -3.7250   -0.8780    0.1140 N   0  0  0  0  0
   -4.5330    0.2330    0.3080 C   0  0  0  0  0
   -5.7450   -0.3390    0.6710 C   0  0  0  0  0
   -5.4960   -1.6740    1.0650 C   0  0  0  0  0
   -4.1020   -1.8700    0.9880 C   0  0  0  0  0
   -6.4960   -2.6650    1.4770 C   0  0  0  0  0
   -6.1480   -3.7830    1.7930 O   0  0  0  0  0
   -7.0890    0.3430    0.6490 C   0  0  0  0  0
   -7.2900    1.1150    1.9550 C   0  0  0  0  0
   -8.6340    1.7970    1.9330 C   0  0  0  0  0
   -9.3560    1.6770    0.9720 O   0  0  0  0  0
   -9.0280    2.5370    2.9810 O   0  0  0  0  0
   -1.1860   -2.0790    0.3570 N   0  0  0  0  0
   -1.7700   -2.7000    1.3970 C   0  0  0  0  0
   -0.6600   -3.4170    2.0160 C   0  0  0  0  0
    0.2850   -3.5660    1.0260 C   0  0  0  0  0
   -0.2800   -2.9280   -0.1600 C   0  0  0  0  0
   -0.5670   -3.8950    3.4420 C   0  0  0  0  0
   -1.4410   -1.2430   -2.3280 N   0  0  0  0  0
   -0.6880   -2.3790   -2.5800 C   0  0  0  0  0
   -0.6800   -2.4270   -3.9670 C   0  0  0  0  0
   -1.0430   -1.1510   -4.4510 C   0  0  0  0  0
   -1.2100   -0.3210   -3.3280 C   0  0  0  0  0
   -0.3430   -3.6300   -4.8090 C   0  0  0  0  0
   -1.2140   -0.7630   -5.8630 C   0  0  0  0  0
   -0.2670   -1.0500   -6.7500 C   0  0  0  0  0
   -1.8560    1.0530   -0.7520 N   0  0  0  0  0
   -1.2850    1.6690   -1.8010 C   0  0  0  0  0
   -1.1150    3.0340   -1.3210 C   0  0  0  0  0
   -2.0400    3.1910   -0.3100 C   0  0  0  0  0
   -2.7370    1.9140   -0.2150 C   0  0  0  0  0
   -0.1320    4.0610   -1.8230 C   0  0  0  0  0
   -2.2810    4.4250    0.5220 C   0  0  0  0  0
   -3.4210    5.2390   -0.0920 C   0  0  0  0  0
   -3.6620    6.4720    0.7400 C   0  0  0  0  0
   -2.9900    6.6790    1.7230 O   0  0  0  0  0
   -4.6230    7.3420    0.3890 O   0  0  0  0  0
    1.6250   -4.2470    1.1420 C   0  0  0  0  0
    1.7330   -5.2600    0.1400 O   0  0  0  0  0
    2.7390   -3.2160    0.9470 C   0  0  0  0  0
    4.0960   -3.8800    1.1870 C   0  0  0  0  0
    5.1930   -2.8650    0.9950 C   0  0  0  0  0
    6.0150   -2.5950    1.9790 C   0  0  0  0  0
    7.1910   -1.6800    1.7490 C   0  0  0  0  0
    6.8150   -0.2540    2.1550 C   0  0  0  0  0
    7.9910    0.6600    1.9250 C   0  0  0  0  0
    7.8760    1.6830    1.1150 C   0  0  0  0  0
    9.0060    2.6720    0.9860 C   0  0  0  0  0
    9.8840    2.2900   -0.2080 C   0  0  0  0  0
   11.0140    3.2790   -0.3370 C   0  0  0  0  0
   12.2530    2.8810   -0.1890 C   0  0  0  0  0
   12.5430    1.4650    0.2370 C   0  0  0  0  0
   13.3880    3.8390   -0.4440 C   0  0  0  0  0
    5.7850   -3.1980    3.3410 C   0  0  0  0  0
    6.6150    1.8710    0.3120 C   0  0  0  0  0
   -4.7240    2.3330    0.3920 H   0  0  0  0  0
   -3.5390   -3.3710    2.3590 H   0  0  0  0  0
    0.5300   -3.9340   -1.8340 H   0  0  0  0  0
   -0.8200    1.6770   -3.8750 H   0  0  0  0  0
   -7.5430   -2.3990    1.4970 H   0  0  0  0  0
   -7.1320    1.0340   -0.1920 H   0  0  0  0  0
   -7.8740   -0.4060    0.5450 H   0  0  0  0  0
   -7.2470    0.4240    2.7960 H   0  0  0  0  0
   -6.5040    1.8640    2.0590 H   0  0  0  0  0
   -9.8980    2.9540    2.9210 H   0  0  0  0  0
   -1.4770   -3.6230    3.9760 H   0  0  0  0  0
   -0.4470   -4.9780    3.4560 H   0  0  0  0  0
    0.2910   -3.4280    3.9270 H   0  0  0  0  0
   -1.2500   -4.2000   -5.0080 H   0  0  0  0  0
    0.0940   -3.3020   -5.7520 H   0  0  0  0  0
    0.3720   -4.2580   -4.2760 H   0  0  0  0  0
   -2.1090   -0.2460   -6.1760 H   0  0  0  0  0
   -0.3920   -0.7650   -7.7840 H   0  0  0  0  0
    0.6280   -1.5670   -6.4360 H   0  0  0  0  0
   -0.5870    4.6360   -2.6290 H   0  0  0  0  0
    0.1420    4.7310   -1.0080 H   0  0  0  0  0
    0.7610    3.5570   -2.1950 H   0  0  0  0  0
   -2.5490    4.1320    1.5370 H   0  0  0  0  0
   -1.3740    5.0290    0.5450 H   0  0  0  0  0
   -3.1540    5.5320   -1.1070 H   0  0  0  0  0
   -4.3280    4.6340   -0.1150 H   0  0  0  0  0
   -4.7400    8.1180    0.9540 H   0  0  0  0  0
    1.7180   -4.7000    2.1290 H   0  0  0  0  0
    1.6590   -4.9270   -0.7650 H   0  0  0  0  0
    2.7000   -2.8270   -0.0710 H   0  0  0  0  0
    2.6050   -2.3970    1.6540 H   0  0  0  0  0
    4.1350   -4.2690    2.2050 H   0  0  0  0  0
    4.2310   -4.6990    0.4800 H   0  0  0  0  0
    5.3020   -2.3600    0.0470 H   0  0  0  0  0
    8.0360   -2.0180    2.3480 H   0  0  0  0  0
    7.4640   -1.6970    0.6930 H   0  0  0  0  0
    5.9700    0.0840    1.5560 H   0  0  0  0  0
    6.5430   -0.2370    3.2110 H   0  0  0  0  0
    8.9280    0.4720    2.4290 H   0  0  0  0  0
    8.5990    3.6710    0.8320 H   0  0  0  0  0
    9.6060    2.6600    1.8960 H   0  0  0  0  0
   10.2910    1.2910   -0.0550 H   0  0  0  0  0
    9.2840    2.3030   -1.1180 H   0  0  0  0  0
   10.8020    4.3160   -0.5530 H   0  0  0  0  0
   12.5450    0.8160   -0.6380 H   0  0  0  0  0
   13.5190    1.4250    0.7220 H   0  0  0  0  0
   11.7760    1.1310    0.9360 H   0  0  0  0  0
   12.9860    4.8080   -0.7400 H   0  0  0  0  0
   13.9780    3.9540    0.4650 H   0  0  0  0  0
   14.0200    3.4490   -1.2410 H   0  0  0  0  0
    6.2300   -4.1920    3.3770 H   0  0  0  0  0
    6.2440   -2.5660    4.1000 H   0  0  0  0  0
    4.7140   -3.2720    3.5280 H   0  0  0  0  0
    5.8750    2.3970    0.9150 H   0  0  0  0  0
    6.8370    2.4540   -0.5810 H   0  0  0  0  0
    6.2210    0.8970    0.0220 H   0  0  0  0  0
  1  6  1  0  0  0
  1 18  1  0  0  0
  1 24  1  0  0  0
  1 32  1  0  0  0
  2  7  2  0  0  0
  2 36  1  0  0  0
  2 61  1  0  0  0
  3 10  2  0  0  0
  3 19  1  0  0  0
  3 62  1  0  0  0
  4 22  2  0  0  0
  4 25  1  0  0  0
  4 63  1  0  0  0
  5 28  1  0  0  0
  5 33  2  0  0  0
  5 64  1  0  0  0
  6  7  1  0  0  0
  6 10  1  0  0  0
  7  8  1  0  0  0
  8  9  2  0  0  0
  8 13  1  0  0  0
  9 10  1  0  0  0
  9 11  1  0  0  0
 11 12  2  0  0  0
 11 65  1  0  0  0
 13 14  1  0  0  0
 13 66  1  0  0  0
 13 67  1  0  0  0
 14 15  1  0  0  0
 14 68  1  0  0  0
 14 69  1  0  0  0
 15 16  2  0  0  0
 15 17  1  0  0  0
 17 70  1  0  0  0
 18 19  2  0  0  0
 18 22  1  0  0  0
 19 20  1  0  0  0
 20 21  2  0  0  0
 20 23  1  0  0  0
 21 22  1  0  0  0
 21 43  1  0  0  0
 23 71  1  0  0  0
 23 72  1  0  0  0
 23 73  1  0  0  0
 24 25  1  0  0  0
 24 28  1  0  0  0
 25 26  2  0  0  0
 26 27  1  0  0  0
 26 29  1  0  0  0
 27 28  2  0  0  0
 27 30  1  0  0  0
 29 74  1  0  0  0
 29 75  1  0  0  0
 29 76  1  0  0  0
 30 31  2  0  0  0
 30 77  1  0  0  0
 31 78  1  0  0  0
 31 79  1  0  0  0
 32 33  1  0  0  0
 32 36  2  0  0  0
 33 34  1  0  0  0
 34 35  2  0  0  0
 34 37  1  0  0  0
 35 36  1  0  0  0
 35 38  1  0  0  0
 37 80  1  0  0  0
 37 81  1  0  0  0
 37 82  1  0  0  0
 38 39  1  0  0  0
 38 83  1  0  0  0
 38 84  1  0  0  0
 39 40  1  0  0  0
 39 85  1  0  0  0
 39 86  1  0  0  0
 40 41  2  0  0  0
 40 42  1  0  0  0
 42 87  1  0  0  0
 43 44  1  0  0  0
 43 45  1  0  0  0
 43 88  1  0  0  0
 44 89  1  0  0  0
 45 46  1  0  0  0
 45 90  1  0  0  0
 45 91  1  0  0  0
 46 47  1  0  0  0
 46 92  1  0  0  0
 46 93  1  0  0  0
 47 48  2  0  0  0
 47 94  1  0  0  0
 48 49  1  0  0  0
 48 59  1  0  0  0
 49 50  1  0  0  0
 49 95  1  0  0  0
 49 96  1  0  0  0
 50 51  1  0  0  0
 50 97  1  0  0  0
 50 98  1  0  0  0
 51 52  2  0  0  0
 51 99  1  0  0  0
 52 53  1  0  0  0
 52 60  1  0  0  0
 53 54  1  0  0  0
 53100  1  0  0  0
 53101  1  0  0  0
 54 55  1  0  0  0
 54102  1  0  0  0
 54103  1  0  0  0
 55 56  2  0  0  0
 55104  1  0  0  0
 56 57  1  0  0  0
 56 58  1  0  0  0
 57105  1  0  0  0
 57106  1  0  0  0
 57107  1  0  0  0
 58108  1  0  0  0
 58109  1  0  0  0
 58110  1  0  0  0
 59111  1  0  0  0
 59112  1  0  0  0
 59113  1  0  0  0
 60114  1  0  0  0
 60115  1  0  0  0
 60116  1  0  0  0
M  END
$$$$
