HED
  CCTOOLS-0919241027

 18 17  0  0  0  0  0  0  0  0999 V2000
    0.2060   -0.0470    2.6800 C   0  0  0  0  0
    0.3110   -1.0420    3.7000 O   0  0  0  0  0
   -0.8300   -0.4860    1.6440 C   0  0  0  0  0
   -0.9630    0.7770    0.3490 S   0  0  0  0  0
    0.9640    0.7750   -0.3490 S   0  0  0  0  0
    0.8290   -0.4870   -1.6440 C   0  0  0  0  0
   -0.2060   -0.0460   -2.6800 C   0  0  0  0  0
   -0.3120   -1.0420   -3.7000 O   0  0  0  0  0
   -0.1020    0.8980    3.1250 H   0  0  0  0  0
    1.1740    0.0790    2.1940 H   0  0  0  0  0
    0.9730   -0.7270    4.3300 H   0  0  0  0  0
   -0.5200   -1.4310    1.1980 H   0  0  0  0  0
   -1.7970   -0.6120    2.1290 H   0  0  0  0  0
    1.7970   -0.6140   -2.1290 H   0  0  0  0  0
    0.5190   -1.4320   -1.1980 H   0  0  0  0  0
   -1.1740    0.0800   -2.1940 H   0  0  0  0  0
    0.1030    0.8980   -3.1250 H   0  0  0  0  0
   -0.9740   -0.7260   -4.3300 H   0  0  0  0  0
  1  2  1  0  0  0
  1  3  1  0  0  0
  1  9  1  0  0  0
  1 10  1  0  0  0
  2 11  1  0  0  0
  3  4  1  0  0  0
  3 12  1  0  0  0
  3 13  1  0  0  0
  4  5  1  0  0  0
  5  6  1  0  0  0
  6  7  1  0  0  0
  6 14  1  0  0  0
  6 15  1  0  0  0
  7  8  1  0  0  0
  7 16  1  0  0  0
  7 17  1  0  0  0
  8 18  1  0  0  0
M  END
$$$$
