HEX
  CCTOOLS-0919241027

 20 19  0  0  0  0  0  0  0  0999 V2000
   -0.2280    0.0000    3.1450 C   0  0  0  0  0
    0.5670    0.0000    1.8390 C   0  0  0  0  0
   -0.3980    0.0000    0.6530 C   0  0  0  0  0
    0.3980    0.0000   -0.6530 C   0  0  0  0  0
   -0.5670    0.0000   -1.8390 C   0  0  0  0  0
    0.2280    0.0000   -3.1450 C   0  0  0  0  0
   -0.8560   -0.8900    3.1880 H   0  0  0  0  0
    0.4590    0.0000    3.9910 H   0  0  0  0  0
   -0.8560    0.8900    3.1880 H   0  0  0  0  0
    1.1950    0.8900    1.7960 H   0  0  0  0  0
    1.1950   -0.8900    1.7960 H   0  0  0  0  0
   -1.0260   -0.8900    0.6950 H   0  0  0  0  0
   -1.0260    0.8900    0.6950 H   0  0  0  0  0
    1.0260    0.8900   -0.6950 H   0  0  0  0  0
    1.0260   -0.8900   -0.6950 H   0  0  0  0  0
   -1.1950   -0.8900   -1.7960 H   0  0  0  0  0
   -1.1950    0.8900   -1.7960 H   0  0  0  0  0
   -0.4590    0.0000   -3.9910 H   0  0  0  0  0
    0.8560    0.8900   -3.1880 H   0  0  0  0  0
    0.8560   -0.8900   -3.1880 H   0  0  0  0  0
  1  2  1  0  0  0
  1  7  1  0  0  0
  1  8  1  0  0  0
  1  9  1  0  0  0
  2  3  1  0  0  0
  2 10  1  0  0  0
  2 11  1  0  0  0
  3  4  1  0  0  0
  3 12  1  0  0  0
  3 13  1  0  0  0
  4  5  1  0  0  0
  4 14  1  0  0  0
  4 15  1  0  0  0
  5  6  1  0  0  0
  5 16  1  0  0  0
  5 17  1  0  0  0
  6 18  1  0  0  0
  6 19  1  0  0  0
  6 20  1  0  0  0
M  END
$$$$
