HFT
  CCTOOLS-0919241028

 31 31  0  0  0  0  0  0  0  0999 V2000
    2.2010    2.6620    0.0730 F   0  0  0  0  0
    2.6970    1.3540    0.0670 C   0  0  0  0  0
    3.3760    1.1060    1.2650 F   0  0  0  0  0
    3.5770    1.1940   -1.0090 F   0  0  0  0  0
    1.5530    0.3830   -0.0720 C   0  0  0  0  0
    0.2580    0.8530   -0.1740 C   0  0  0  0  0
    1.8010   -0.9770   -0.1030 C   0  0  0  0  0
    3.1900   -1.4770    0.0010 N   0  3  0  0  0
    3.4090   -2.6750   -0.0260 O   0  5  0  0  0
    4.1130   -0.6910    0.1120 O   0  0  0  0  0
    0.7530   -1.8710   -0.2300 C   0  0  0  0  0
   -0.5440   -1.4070   -0.3260 C   0  0  0  0  0
   -0.7960   -0.0420   -0.2950 C   0  0  0  0  0
   -2.1100    0.4310   -0.3930 N   0  0  0  0  0
   -3.1140   -0.2420    0.2030 C   0  0  0  0  0
   -2.8690   -1.1990    0.9060 O   0  0  0  0  0
   -4.5410    0.1950   -0.0060 C   0  0  0  0  0
   -4.8830    0.1270   -1.4960 C   0  0  0  0  0
   -4.7130    1.6310    0.4920 C   0  0  0  0  0
   -5.4150   -0.6700    0.7230 O   0  0  0  0  0
    0.0650    1.9160   -0.1500 H   0  0  0  0  0
    0.9500   -2.9320   -0.2530 H   0  0  0  0  0
   -1.3620   -2.1060   -0.4250 H   0  0  0  0  0
   -2.2970    1.2430   -0.8890 H   0  0  0  0  0
   -4.2170    0.7860   -2.0520 H   0  0  0  0  0
   -4.7610   -0.8960   -1.8500 H   0  0  0  0  0
   -5.9150    0.4430   -1.6460 H   0  0  0  0  0
   -5.7450    1.9470    0.3410 H   0  0  0  0  0
   -4.4690    1.6800    1.5530 H   0  0  0  0  0
   -4.0460    2.2910   -0.0640 H   0  0  0  0  0
   -6.3160   -0.3560    0.5630 H   0  0  0  0  0
  1  2  1  0  0  0
  2  3  1  0  0  0
  2  4  1  0  0  0
  2  5  1  0  0  0
  5  6  2  0  0  0
  5  7  1  0  0  0
  6 13  1  0  0  0
  6 21  1  0  0  0
  7  8  1  0  0  0
  7 11  2  0  0  0
  8  9  1  0  0  0
  8 10  2  0  0  0
 11 12  1  0  0  0
 11 22  1  0  0  0
 12 13  2  0  0  0
 12 23  1  0  0  0
 13 14  1  0  0  0
 14 15  1  0  0  0
 14 24  1  0  0  0
 15 16  2  0  0  0
 15 17  1  0  0  0
 17 18  1  0  0  0
 17 19  1  0  0  0
 17 20  1  0  0  0
 18 25  1  0  0  0
 18 26  1  0  0  0
 18 27  1  0  0  0
 19 28  1  0  0  0
 19 29  1  0  0  0
 19 30  1  0  0  0
 20 31  1  0  0  0
M  CHG  1   8   1
M  CHG  1   9  -1
M  END
$$$$
