HG7
  CCTOOLS-1004241128

 39 39  0  0  1  0  0  0  0  0999 V2000
    0.4750   -1.6890    0.1870 C   0  0  0  0  0
    2.6110   -2.7110    0.7340 N   0  0  0  0  0
    0.3430   -2.5620   -0.6440 O   0  0  0  0  0
    2.5320   -0.3380    0.2190 C   0  0  0  0  0
    2.5220    0.9070    0.8170 C   0  0  0  0  0
    3.1950    1.9660    0.2230 C   0  0  0  0  0
    3.1880    3.1910    0.8100 O   0  0  0  0  0
    3.8760    1.7700   -0.9690 C   0  0  0  0  0
    3.8830    0.5230   -1.5630 C   0  0  0  0  0
    3.2110   -0.5300   -0.9700 C   0  0  0  0  0
    1.8060   -1.4890    0.8650 C   0  0  0  0  0
   -0.5670   -0.8940    0.5000 N   0  0  0  0  0
   -1.8590   -1.0840   -0.1640 C   0  0  0  0  0
   -2.8620   -0.0590    0.3690 C   0  0  0  0  0
   -4.2110   -0.2580   -0.3240 C   0  0  0  0  0
   -5.1740    0.7260    0.1880 N   0  0  0  0  0
   -4.7850    2.0910   -0.1910 C   0  0  0  0  0
   -6.5350    0.4200   -0.2740 C   0  0  0  0  0
    2.7730   -2.9350   -0.2360 H   0  0  0  0  0
    3.4820   -2.6260    1.2360 H   0  0  0  0  0
    1.9910    1.0570    1.7450 H   0  0  0  0  0
    3.9150    3.3350    1.4310 H   0  0  0  0  0
    4.4000    2.5930   -1.4330 H   0  0  0  0  0
    4.4120    0.3710   -2.4920 H   0  0  0  0  0
    3.2180   -1.5040   -1.4360 H   0  0  0  0  0
    1.6460   -1.2710    1.9210 H   0  0  0  0  0
   -0.4610   -0.1950    1.1650 H   0  0  0  0  0
   -1.7380   -0.9500   -1.2390 H   0  0  0  0  0
   -2.2260   -2.0910    0.0370 H   0  0  0  0  0
   -2.9830   -0.1940    1.4440 H   0  0  0  0  0
   -2.4950    0.9470    0.1680 H   0  0  0  0  0
   -4.0910   -0.1240   -1.3990 H   0  0  0  0  0
   -4.5780   -1.2650   -0.1230 H   0  0  0  0  0
   -4.7480    2.1700   -1.2780 H   0  0  0  0  0
   -5.5150    2.7990    0.2000 H   0  0  0  0  0
   -3.8020    2.3160    0.2220 H   0  0  0  0  0
   -6.8250   -0.5700    0.0800 H   0  0  0  0  0
   -7.2280    1.1640    0.1200 H   0  0  0  0  0
   -6.5620    0.4380   -1.3630 H   0  0  0  0  0
  1  3  2  0  0  0
  1 11  1  0  0  0
  1 12  1  0  0  0
  2 11  1  0  0  0
  2 19  1  0  0  0
  2 20  1  0  0  0
  4  5  2  0  0  0
  4 10  1  0  0  0
  4 11  1  0  0  0
  5  6  1  0  0  0
  5 21  1  0  0  0
  6  7  1  0  0  0
  6  8  2  0  0  0
  7 22  1  0  0  0
  8  9  1  0  0  0
  8 23  1  0  0  0
  9 10  2  0  0  0
  9 24  1  0  0  0
 10 25  1  0  0  0
 11 26  1  0  0  0
 12 13  1  0  0  0
 12 27  1  0  0  0
 13 14  1  0  0  0
 13 28  1  0  0  0
 13 29  1  0  0  0
 14 15  1  0  0  0
 14 30  1  0  0  0
 14 31  1  0  0  0
 15 16  1  0  0  0
 15 32  1  0  0  0
 15 33  1  0  0  0
 16 17  1  0  0  0
 16 18  1  0  0  0
 17 34  1  0  0  0
 17 35  1  0  0  0
 17 36  1  0  0  0
 18 37  1  0  0  0
 18 38  1  0  0  0
 18 39  1  0  0  0
M  END
$$$$
