HGM
  CCTOOLS-1004241128

 24 24  0  0  1  0  0  0  0  0999 V2000
   -1.9600   -0.9740   -0.2140 C   0  0  0  0  0
   -1.8730    1.4500   -0.0600 N   0  0  0  0  0
   -2.7770   -0.7890   -1.0860 O   0  0  0  0  0
    0.1620    0.1680    0.2850 C   0  0  0  0  0
    0.9850   -0.3240    1.2820 C   0  0  0  0  0
    2.3530   -0.3610    1.0950 C   0  0  0  0  0
    2.9010    0.0970   -0.0940 C   0  0  0  0  0
    4.2470    0.0620   -0.2810 O   0  0  0  0  0
    0.7060    0.6240   -0.9010 C   0  0  0  0  0
    2.0740    0.5900   -1.0930 C   0  0  0  0  0
   -1.3310    0.2000    0.4900 C   0  0  0  0  0
   -3.1350    1.8110    0.5990 C   0  0  0  0  0
   -1.6180   -2.2250    0.1300 O   0  0  0  0  0
   -1.2000    2.1980    0.0110 H   0  0  0  0  0
    0.5570   -0.6800    2.2080 H   0  0  0  0  0
    2.9950   -0.7450    1.8740 H   0  0  0  0  0
    4.5680   -0.7590   -0.6790 H   0  0  0  0  0
    0.0620    1.0080   -1.6780 H   0  0  0  0  0
    2.4990    0.9470   -2.0200 H   0  0  0  0  0
   -1.5530    0.1460    1.5560 H   0  0  0  0  0
   -3.5140    2.7400    0.1730 H   0  0  0  0  0
   -3.8650    1.0170    0.4470 H   0  0  0  0  0
   -2.9610    1.9460    1.6670 H   0  0  0  0  0
   -2.0510   -2.9460   -0.3480 H   0  0  0  0  0
  1  3  2  0  0  0
  1 11  1  0  0  0
  1 13  1  0  0  0
  2 11  1  0  0  0
  2 12  1  0  0  0
  2 14  1  0  0  0
  4  5  2  0  0  0
  4  9  1  0  0  0
  4 11  1  0  0  0
  5  6  1  0  0  0
  5 15  1  0  0  0
  6  7  2  0  0  0
  6 16  1  0  0  0
  7  8  1  0  0  0
  7 10  1  0  0  0
  8 17  1  0  0  0
  9 10  2  0  0  0
  9 18  1  0  0  0
 10 19  1  0  0  0
 11 20  1  0  0  0
 12 21  1  0  0  0
 12 22  1  0  0  0
 12 23  1  0  0  0
 13 24  1  0  0  0
M  END
$$$$
