HJ2
  CCTOOLS-1004241128

 49 49  0  0  1  0  0  0  0  0999 V2000
    1.4000   -0.5570    0.0340 C   0  0  0  0  0
    1.2340   -1.4160   -0.6140 H   0  0  0  0  0
    2.6020    0.2410   -0.4750 C   0  0  0  0  0
    2.8920    1.6830    0.6020 S   0  0  0  0  0
    4.4140    2.3660   -0.1220 C   0  0  0  0  0
    3.8140   -0.5900   -0.4220 N   0  0  0  0  0
    5.0760   -0.0180   -0.5140 C   0  0  0  0  0
    6.1940   -0.9390   -0.7890 C   0  0  0  0  0
    5.9800   -2.2690   -0.8190 O   0  0  0  0  0
    7.3090   -0.4990   -0.9880 O   0  0  0  0  0
    5.3850    1.2510   -0.3850 C   0  0  0  0  0
    0.2100    0.2970    0.0290 N   0  0  0  0  0
    2.4220    0.5720   -1.4980 H   0  0  0  0  0
    4.1760    2.8700   -1.0590 H   0  0  0  0  0
    3.7310   -1.5510   -0.3220 H   0  0  0  0  0
    6.8400    1.6220   -0.5100 C   0  0  0  0  0
    4.8580    3.0790    0.5720 H   0  0  0  0  0
    0.3030    1.2610    0.0890 H   0  0  0  0  0
   -1.0160   -0.2560   -0.0600 C   0  0  0  0  0
   -2.2410    0.6220   -0.0650 C   0  0  0  0  0
   -1.1330   -1.4610   -0.1350 O   0  0  0  0  0
   -3.4930   -0.2500   -0.1740 C   0  0  0  0  0
   -2.2790    1.1980    0.8590 H   0  0  0  0  0
   -2.1970    1.3010   -0.9160 H   0  0  0  0  0
   -4.7360    0.6410   -0.1800 C   0  0  0  0  0
   -3.4550   -0.8270   -1.0980 H   0  0  0  0  0
   -3.5370   -0.9300    0.6770 H   0  0  0  0  0
   -5.9890   -0.2310   -0.2880 C   0  0  0  0  0
   -4.7740    1.2180    0.7440 H   0  0  0  0  0
   -4.6920    1.3210   -1.0310 H   0  0  0  0  0
   -7.2320    0.6600   -0.2940 C   0  0  0  0  0
   -5.9510   -0.8080   -1.2130 H   0  0  0  0  0
   -6.0330   -0.9110    0.5620 H   0  0  0  0  0
   -8.4570   -0.1870   -0.5240 C   0  0  0  0  0
   -7.3480    1.3470    0.9990 N   0  0  0  0  0
   -7.1460    1.3990   -1.0910 H   0  0  0  0  0
   -8.7760   -0.5830   -1.7670 O   0  0  0  0  0
   -9.1520   -0.5110    0.4100 O   0  0  0  0  0
    6.9530    2.6980   -0.3830 H   0  0  0  0  0
    7.4150    1.1030    0.2570 H   0  0  0  0  0
    7.2050    1.3330   -1.4960 H   0  0  0  0  0
   -8.1250    1.9910    0.9980 H   0  0  0  0  0
   -7.4290    0.6840    1.7550 H   0  0  0  0  0
   -9.5710   -1.1250   -1.8650 H   0  0  0  0  0
    6.7440   -2.8330   -1.0030 H   0  0  0  0  0
    1.6710   -1.0320    1.4390 C   0  0  0  0  0
    2.7200   -1.8320    1.6860 O   0  0  0  0  0
    0.9450   -0.6920    2.3420 O   0  0  0  0  0
    2.8530   -2.1110    2.6020 H   0  0  0  0  0
  1  2  1  0  0  0
  1  3  1  0  0  0
  1 12  1  0  0  0
  1 46  1  0  0  0
  3  4  1  0  0  0
  3  6  1  0  0  0
  3 13  1  0  0  0
  4  5  1  0  0  0
  5 11  1  0  0  0
  5 14  1  0  0  0
  5 17  1  0  0  0
  6  7  1  0  0  0
  6 15  1  0  0  0
  7  8  1  0  0  0
  7 11  2  0  0  0
  8  9  1  0  0  0
  8 10  2  0  0  0
  9 45  1  0  0  0
 11 16  1  0  0  0
 12 18  1  0  0  0
 12 19  1  0  0  0
 16 39  1  0  0  0
 16 40  1  0  0  0
 16 41  1  0  0  0
 19 20  1  0  0  0
 19 21  2  0  0  0
 20 22  1  0  0  0
 20 23  1  0  0  0
 20 24  1  0  0  0
 22 25  1  0  0  0
 22 26  1  0  0  0
 22 27  1  0  0  0
 25 28  1  0  0  0
 25 29  1  0  0  0
 25 30  1  0  0  0
 28 31  1  0  0  0
 28 32  1  0  0  0
 28 33  1  0  0  0
 31 34  1  0  0  0
 31 35  1  0  0  0
 31 36  1  0  0  0
 34 37  1  0  0  0
 34 38  2  0  0  0
 35 42  1  0  0  0
 35 43  1  0  0  0
 37 44  1  0  0  0
 46 47  1  0  0  0
 46 48  2  0  0  0
 47 49  1  0  0  0
M  END
$$$$
