HJ3
  CCTOOLS-1004241128

 50 50  0  0  1  0  0  0  0  0999 V2000
    1.0430    0.2920    1.7320 O   0  0  0  0  0
    0.8320    0.0260    0.5670 C   0  0  0  0  0
    1.9830   -0.0980   -0.3980 C   0  0  0  0  0
    3.2980    0.1560    0.3420 C   0  0  0  0  0
   -0.4310   -0.1640    0.1370 N   0  0  0  0  0
   -1.5490   -0.0490    1.0770 C   0  0  0  0  0
   -1.7460   -1.3640    1.7860 C   0  0  0  0  0
   -1.0270   -2.3000    1.5330 O   0  0  0  0  0
   -2.8230    0.3130    0.3110 C   0  0  0  0  0
   -3.2590   -0.9950   -0.9100 S   0  0  0  0  0
   -4.0160    0.2740    1.2030 N   0  0  0  0  0
   -5.2510    0.1580    0.4220 C   0  0  0  0  0
   -5.7410    1.5410    0.0790 C   0  0  0  0  0
   -7.0160    1.7270   -0.2970 O   0  0  0  0  0
   -4.9860    2.4820    0.1420 O   0  0  0  0  0
   -5.0610   -0.6400   -0.8830 C   0  0  0  0  0
   -5.8660   -1.9400   -0.8410 C   0  0  0  0  0
   -5.4620    0.2050   -2.0940 C   0  0  0  0  0
    1.9940   -1.1020   -0.8230 H   0  0  0  0  0
    1.8680    0.6340   -1.1970 H   0  0  0  0  0
    4.4670    0.0300   -0.6380 C   0  0  0  0  0
    3.2870    1.1600    0.7670 H   0  0  0  0  0
    3.4140   -0.5760    1.1410 H   0  0  0  0  0
   -0.5990   -0.3770   -0.7940 H   0  0  0  0  0
   -1.3310    0.7290    1.8080 H   0  0  0  0  0
   -2.5310   -1.4690    2.5210 H   0  0  0  0  0
   -2.7250    1.2850   -0.1730 H   0  0  0  0  0
   -3.9410   -0.4750    1.8740 H   0  0  0  0  0
   -6.0060   -0.3390    1.0310 H   0  0  0  0  0
   -7.2850    2.6320   -0.5070 H   0  0  0  0  0
   -5.5840   -2.5140    0.0420 H   0  0  0  0  0
   -6.9300   -1.7080   -0.7990 H   0  0  0  0  0
   -5.6560   -2.5260   -1.7360 H   0  0  0  0  0
   -5.2460   -0.3470   -3.0090 H   0  0  0  0  0
   -6.5280    0.4260   -2.0460 H   0  0  0  0  0
   -4.8970    1.1370   -2.0900 H   0  0  0  0  0
    5.7820    0.2850    0.1020 C   0  0  0  0  0
    4.4780   -0.9730   -1.0630 H   0  0  0  0  0
    4.3520    0.7620   -1.4370 H   0  0  0  0  0
    5.7710    1.2890    0.5270 H   0  0  0  0  0
    5.8970   -0.4470    0.9010 H   0  0  0  0  0
    6.9510    0.1590   -0.8780 C   0  0  0  0  0
    8.5570    1.8210   -0.0120 O   0  0  0  0  0
    7.0380   -1.2260   -1.3600 N   0  0  0  0  0
    6.7900    0.8290   -1.7230 H   0  0  0  0  0
    8.2330    0.5300   -0.1800 C   0  0  0  0  0
    8.9710   -0.3360    0.2290 O   0  0  0  0  0
    9.3900    2.0100    0.4420 H   0  0  0  0  0
    7.7610   -1.3210   -2.0570 H   0  0  0  0  0
    7.1860   -1.8670   -0.5950 H   0  0  0  0  0
  1  2  2  0  0  0
  2  3  1  0  0  0
  3  4  1  0  0  0
  3 19  1  0  0  0
  3 20  1  0  0  0
  4 21  1  0  0  0
  4 22  1  0  0  0
  4 23  1  0  0  0
  5  2  1  0  0  0
  5 24  1  0  0  0
  6  5  1  0  0  0
  6  9  1  0  0  0
  6 25  1  0  0  0
  7  6  1  0  0  0
  7  8  2  0  0  0
  7 26  1  0  0  0
  9 10  1  0  0  0
  9 27  1  0  0  0
 10 16  1  0  0  0
 11  9  1  0  0  0
 11 12  1  0  0  0
 11 28  1  0  0  0
 12 16  1  0  0  0
 12 29  1  0  0  0
 13 12  1  0  0  0
 13 14  1  0  0  0
 14 30  1  0  0  0
 15 13  2  0  0  0
 16 18  1  0  0  0
 16 17  1  0  0  0
 17 31  1  0  0  0
 17 32  1  0  0  0
 17 33  1  0  0  0
 18 34  1  0  0  0
 18 35  1  0  0  0
 18 36  1  0  0  0
 21 37  1  0  0  0
 21 38  1  0  0  0
 21 39  1  0  0  0
 37 40  1  0  0  0
 37 41  1  0  0  0
 37 42  1  0  0  0
 42 46  1  0  0  0
 42 44  1  0  0  0
 42 45  1  0  0  0
 43 46  1  0  0  0
 43 48  1  0  0  0
 44 49  1  0  0  0
 44 50  1  0  0  0
 46 47  2  0  0  0
M  END
$$$$
