HKA
  CCTOOLS-0919241028

 30 31  0  0  0  0  0  0  0  0999 V2000
   -0.9700   -1.3290   -0.0060 C   0  0  0  0  0
   -2.2040   -0.7090   -0.0020 C   0  0  0  0  0
   -2.2820    0.6870   -0.0010 C   0  0  0  0  0
   -1.1100    1.4490   -0.0040 C   0  0  0  0  0
    0.1180    0.8240   -0.0090 C   0  0  0  0  0
    0.1950   -0.5620   -0.0090 C   0  0  0  0  0
   -3.5970    1.3540    0.0040 C   0  0  0  0  0
    1.4070   -1.1730   -0.0140 O   0  0  0  0  0
   -3.6700    2.7000    0.0050 O   0  0  0  0  0
   -4.6150    0.6910    0.0060 O   0  0  0  0  0
   -2.1250   -3.4080    0.0070 C   0  0  0  0  0
    3.0810    0.0040    1.2000 C   0  0  0  0  0
    4.2130    0.7960    1.2060 C   0  0  0  0  0
    2.5170   -0.3890   -0.0050 C   0  0  0  0  0
    4.7790    1.2030    0.0120 C   0  0  0  0  0
    4.2160    0.8170   -1.1900 C   0  0  0  0  0
   -0.8910   -2.6860   -0.0020 O   0  0  0  0  0
    3.0880    0.0200   -1.2020 C   0  0  0  0  0
   -3.1080   -1.3010    0.0000 H   0  0  0  0  0
   -1.1670    2.5270   -0.0030 H   0  0  0  0  0
    1.0220    1.4140   -0.0120 H   0  0  0  0  0
   -4.5540    3.0920    0.0070 H   0  0  0  0  0
   -2.7020   -3.1510   -0.8810 H   0  0  0  0  0
   -1.9190   -4.4780    0.0100 H   0  0  0  0  0
   -2.6930   -3.1450    0.9000 H   0  0  0  0  0
    2.6480   -0.2810   -2.1410 H   0  0  0  0  0
    4.6610    1.1360   -2.1220 H   0  0  0  0  0
    5.6640    1.8230    0.0190 H   0  0  0  0  0
    2.6390   -0.3140    2.1330 H   0  0  0  0  0
    4.6550    1.0990    2.1440 H   0  0  0  0  0
  1  2  1  0  0  0
  1  6  2  0  0  0
  1 17  1  0  0  0
  2  3  2  0  0  0
  2 19  1  0  0  0
  4  5  2  0  0  0
  4  3  1  0  0  0
  4 20  1  0  0  0
  5  6  1  0  0  0
  5 21  1  0  0  0
  6  8  1  0  0  0
  7  9  1  0  0  0
  7 10  2  0  0  0
  7  3  1  0  0  0
  8 14  1  0  0  0
  9 22  1  0  0  0
 11 17  1  0  0  0
 11 23  1  0  0  0
 11 24  1  0  0  0
 11 25  1  0  0  0
 12 29  1  0  0  0
 13 12  2  0  0  0
 13 30  1  0  0  0
 14 12  1  0  0  0
 15 13  1  0  0  0
 15 28  1  0  0  0
 16 15  2  0  0  0
 16 27  1  0  0  0
 18 16  1  0  0  0
 18 14  2  0  0  0
 18 26  1  0  0  0
M  END
$$$$
