HM6
  CCTOOLS-0919241028

 27 28  0  0  0  0  0  0  0  0999 V2000
    2.7920   -3.1820    0.0050 O   0  0  0  0  0
    3.1150   -2.0120    0.0020 C   0  0  0  0  0
    4.4190   -1.6740   -0.0070 O   0  0  0  0  0
    2.0760   -0.9560    0.0040 C   0  0  0  0  0
    2.4370    0.3170    0.0010 N   0  0  0  0  0
    0.7280   -1.3160    0.0020 C   0  0  0  0  0
   -0.2410   -0.3160    0.0030 C   0  0  0  0  0
    0.1770    1.0120    0.0060 C   0  0  0  0  0
    1.5430    1.2940    0.0020 C   0  0  0  0  0
    1.9990    2.7040   -0.0010 C   0  0  0  0  0
    1.1850    3.6050   -0.0000 O   0  0  0  0  0
    3.3160    2.9860   -0.0040 O   0  0  0  0  0
   -1.6040   -0.6390    0.0020 N   0  0  0  0  0
   -2.6510    0.2340    0.0020 C   0  0  0  0  0
   -3.7770   -0.5090   -0.0010 C   0  0  0  0  0
   -5.1830    0.0330   -0.0020 C   0  0  0  0  0
   -5.1420    1.4620    0.0010 O   0  0  0  0  0
   -3.4460   -1.8010   -0.0030 N   0  0  0  0  0
   -2.1640   -1.9250   -0.0080 N   0  0  0  0  0
    0.4400   -2.3570    0.0000 H   0  0  0  0  0
   -0.5470    1.8130    0.0060 H   0  0  0  0  0
    3.5650    3.9200   -0.0060 H   0  0  0  0  0
   -2.5900    1.3120    0.0050 H   0  0  0  0  0
   -5.7060   -0.3140   -0.8930 H   0  0  0  0  0
   -5.7080   -0.3170    0.8870 H   0  0  0  0  0
   -6.0140    1.8800    0.0010 H   0  0  0  0  0
    5.0600   -2.3970   -0.0120 H   0  0  0  0  0
  1  2  2  0  0  0
  2  3  1  0  0  0
  2  4  1  0  0  0
  3 27  1  0  0  0
  4  5  2  0  0  0
  4  6  1  0  0  0
  5  9  1  0  0  0
  6  7  2  0  0  0
  6 20  1  0  0  0
  7  8  1  0  0  0
  7 13  1  0  0  0
  8  9  2  0  0  0
  8 21  1  0  0  0
  9 10  1  0  0  0
 10 11  2  0  0  0
 10 12  1  0  0  0
 12 22  1  0  0  0
 13 14  1  0  0  0
 13 19  1  0  0  0
 14 15  2  0  0  0
 14 23  1  0  0  0
 15 16  1  0  0  0
 15 18  1  0  0  0
 16 17  1  0  0  0
 16 24  1  0  0  0
 16 25  1  0  0  0
 17 26  1  0  0  0
 18 19  2  0  0  0
M  END
$$$$
