HMG
  CCTOOLS-1004241129

 97 99  0  0  1  0  0  0  0  0999 V2000
   -2.0240   -3.9800   -0.8740 P   0  0  0  0  0
   -2.6030   -5.1620   -1.6840 O   0  0  0  0  0
   -1.0670   -3.1620   -1.7700 O   0  5  0  0  0
   -3.2260   -3.0350   -0.3690 O   0  0  0  0  0
   -1.2150   -4.5460    0.3980 O   0  0  0  0  0
   -4.5940   -2.5130   -1.0370 P   0  0  0  0  0
   -4.3400   -2.1560   -2.5190 O   0  0  0  0  0
   -5.6660   -3.6220   -0.9510 O   0  5  0  0  0
   -5.1100   -1.2060   -0.2510 O   0  0  0  0  0
   -6.2460   -0.4450   -0.6680 C   0  0  0  0  0
   -6.4580    0.7240    0.2960 C   0  0  0  0  0
   -5.3630    1.6500    0.1900 O   0  0  0  0  0
   -7.7420    1.4880   -0.0810 C   0  0  0  0  0
   -8.6720    1.4690    1.0030 O   0  0  0  0  0
   -7.2580    2.9330   -0.3530 C   0  0  0  0  0
   -8.1720    3.8880    0.1890 O   0  0  0  0  0
   -5.9060    2.9710    0.4040 C   0  0  0  0  0
  -10.1450    0.8290    0.8830 P   0  0  0  0  0
  -10.9040    1.4880   -0.3180 O   0  0  0  0  0
  -10.0260   -0.7150    0.6420 O   0  5  0  0  0
  -10.9380    1.0910    2.2090 O   0  5  0  0  0
   -5.0220    3.9900   -0.1680 N   0  0  0  0  0
   -4.9530    5.3080    0.2090 C   0  0  0  0  0
   -5.5740    6.0600    1.1120 N   0  0  0  0  0
   -5.2790    7.3360    1.2400 C   0  0  0  0  0
   -4.3660    7.9310    0.4920 N   0  0  0  0  0
   -3.6930    7.2600   -0.4370 C   0  0  0  0  0
   -3.9730    5.8930   -0.6100 C   0  0  0  0  0
   -3.5040    4.9220   -1.4290 N   0  0  0  0  0
   -4.1150    3.8020   -1.1670 C   0  0  0  0  0
   -2.7390    7.8910   -1.2150 N   0  0  0  0  0
    0.3930   -5.8180    1.6770 C   0  0  0  0  0
   -0.1550   -5.4970    0.2850 C   0  0  0  0  0
    0.9230   -4.5370    2.3240 C   0  0  0  0  0
   -0.7260   -6.4010    2.5430 C   0  0  0  0  0
    1.5280   -6.8370    1.5570 C   0  0  0  0  0
    1.0050   -8.0780    1.0790 O   0  0  0  0  0
    2.5640   -6.3220    0.5910 C   0  0  0  0  0
    2.7250   -6.8740   -0.4770 O   0  0  0  0  0
    3.3120   -5.2480    0.9140 N   0  0  0  0  0
    4.2510   -4.6890   -0.0620 C   0  0  0  0  0
    4.9680   -3.4850    0.5520 C   0  0  0  0  0
    5.9340   -2.9100   -0.4520 C   0  0  0  0  0
    6.0380   -3.4140   -1.5500 O   0  0  0  0  0
    6.6820   -1.8370   -0.1290 N   0  0  0  0  0
    7.6200   -1.2780   -1.1050 C   0  0  0  0  0
    8.3380   -0.0740   -0.4910 C   0  0  0  0  0
    9.4980    0.6170   -1.6970 S   0  0  0  0  0
   10.1450    1.9100   -0.7800 C   0  0  0  0  0
    9.7600    2.1010    0.3550 O   0  0  0  0  0
   11.1920    2.8110   -1.3830 C   0  0  0  0  0
   11.7130    3.7730   -0.3130 C   0  0  0  0  0
   10.6360    4.5800    0.1670 O   0  0  0  0  0
   12.3070    2.9730    0.8470 C   0  0  0  0  0
   12.8210    3.9210    1.9000 C   0  0  0  0  0
   12.7200    5.1250    1.7370 O   0  0  0  0  0
   13.3360    3.4840    2.9150 O   0  5  0  0  0
   12.7930    4.6720   -0.9190 C   0  0  0  0  0
   -6.0760   -0.0600   -1.6740 H   0  0  0  0  0
   -7.1300   -1.0820   -0.6660 H   0  0  0  0  0
   -6.5310    0.3530    1.3180 H   0  0  0  0  0
   -8.1920    1.0590   -0.9760 H   0  0  0  0  0
   -7.1110    3.1000   -1.4210 H   0  0  0  0  0
   -7.9120    4.8080    0.0430 H   0  0  0  0  0
   -6.0660    3.1520    1.4670 H   0  0  0  0  0
   -5.8020    7.9190    1.9830 H   0  0  0  0  0
   -3.9310    2.8640   -1.6690 H   0  0  0  0  0
   -2.5550    8.8350   -1.0850 H   0  0  0  0  0
   -2.2550    7.3910   -1.8900 H   0  0  0  0  0
   -0.5330   -6.4100   -0.1760 H   0  0  0  0  0
    0.6420   -5.0820   -0.3320 H   0  0  0  0  0
    0.0930   -3.8590    2.5220 H   0  0  0  0  0
    1.4220   -4.7830    3.2610 H   0  0  0  0  0
    1.6320   -4.0560    1.6500 H   0  0  0  0  0
   -1.0630   -7.3450    2.1140 H   0  0  0  0  0
   -0.3520   -6.5740    3.5520 H   0  0  0  0  0
   -1.5600   -5.7000    2.5800 H   0  0  0  0  0
    1.9860   -6.9880    2.5350 H   0  0  0  0  0
    0.5820   -8.0180    0.2110 H   0  0  0  0  0
    3.2290   -4.8460    1.7930 H   0  0  0  0  0
    4.9840   -5.4480   -0.3370 H   0  0  0  0  0
    3.7050   -4.3720   -0.9510 H   0  0  0  0  0
    4.2350   -2.7270    0.8270 H   0  0  0  0  0
    5.5140   -3.8020    1.4410 H   0  0  0  0  0
    6.5980   -1.4340    0.7500 H   0  0  0  0  0
    8.3530   -2.0360   -1.3800 H   0  0  0  0  0
    7.0750   -0.9610   -1.9940 H   0  0  0  0  0
    7.6050    0.6850   -0.2160 H   0  0  0  0  0
    8.8830   -0.3910    0.3980 H   0  0  0  0  0
   12.0160    2.2070   -1.7610 H   0  0  0  0  0
   10.7530    3.3810   -2.2010 H   0  0  0  0  0
    9.9130    4.0760    0.5650 H   0  0  0  0  0
   11.5380    2.3320    1.2790 H   0  0  0  0  0
   13.1290    2.3570    0.4810 H   0  0  0  0  0
   12.3660    5.2510   -1.7380 H   0  0  0  0  0
   13.1720    5.3500   -0.1540 H   0  0  0  0  0
   13.6090    4.0560   -1.2960 H   0  0  0  0  0
  1  2  2  0  0  0
  1  3  1  0  0  0
  1  4  1  0  0  0
  1  5  1  0  0  0
  4  6  1  0  0  0
  5 33  1  0  0  0
  6  7  2  0  0  0
  6  8  1  0  0  0
  6  9  1  0  0  0
  9 10  1  0  0  0
 10 11  1  0  0  0
 10 59  1  0  0  0
 10 60  1  0  0  0
 11 12  1  0  0  0
 11 13  1  0  0  0
 11 61  1  0  0  0
 12 17  1  0  0  0
 13 14  1  0  0  0
 13 15  1  0  0  0
 13 62  1  0  0  0
 14 18  1  0  0  0
 15 16  1  0  0  0
 15 17  1  0  0  0
 15 63  1  0  0  0
 16 64  1  0  0  0
 17 22  1  0  0  0
 17 65  1  0  0  0
 18 19  2  0  0  0
 18 20  1  0  0  0
 18 21  1  0  0  0
 22 23  1  0  0  0
 22 30  1  0  0  0
 23 24  1  0  0  0
 23 28  2  0  0  0
 24 25  2  0  0  0
 25 26  1  0  0  0
 25 66  1  0  0  0
 26 27  2  0  0  0
 27 28  1  0  0  0
 27 31  1  0  0  0
 28 29  1  0  0  0
 29 30  2  0  0  0
 30 67  1  0  0  0
 31 68  1  0  0  0
 31 69  1  0  0  0
 32 33  1  0  0  0
 32 34  1  0  0  0
 32 35  1  0  0  0
 32 36  1  0  0  0
 33 70  1  0  0  0
 33 71  1  0  0  0
 34 72  1  0  0  0
 34 73  1  0  0  0
 34 74  1  0  0  0
 35 75  1  0  0  0
 35 76  1  0  0  0
 35 77  1  0  0  0
 36 37  1  0  0  0
 36 38  1  0  0  0
 36 78  1  0  0  0
 37 79  1  0  0  0
 38 39  2  0  0  0
 38 40  1  0  0  0
 40 41  1  0  0  0
 40 80  1  0  0  0
 41 42  1  0  0  0
 41 81  1  0  0  0
 41 82  1  0  0  0
 42 43  1  0  0  0
 42 83  1  0  0  0
 42 84  1  0  0  0
 43 44  2  0  0  0
 43 45  1  0  0  0
 45 46  1  0  0  0
 45 85  1  0  0  0
 46 47  1  0  0  0
 46 86  1  0  0  0
 46 87  1  0  0  0
 47 48  1  0  0  0
 47 88  1  0  0  0
 47 89  1  0  0  0
 48 49  1  0  0  0
 49 50  2  0  0  0
 49 51  1  0  0  0
 51 52  1  0  0  0
 51 90  1  0  0  0
 51 91  1  0  0  0
 52 53  1  0  0  0
 52 54  1  0  0  0
 52 58  1  0  0  0
 53 92  1  0  0  0
 54 55  1  0  0  0
 54 93  1  0  0  0
 54 94  1  0  0  0
 55 56  2  0  0  0
 55 57  1  0  0  0
 58 95  1  0  0  0
 58 96  1  0  0  0
 58 97  1  0  0  0
M  CHG  1   3  -1
M  CHG  1   8  -1
M  CHG  1  20  -1
M  CHG  1  21  -1
M  CHG  1  57  -1
M  END
$$$$
