HOA
  CCTOOLS-1004241129

  5  4  0  0  0  0  0  0  0  0999 V2000
    0.7400    0.0310   -0.0760 N   0  0  0  0  0
   -0.7160   -0.0670    0.0300 O   0  0  0  0  0
    1.0370    0.7010    0.6170 H   0  0  0  0  0
    1.1120   -0.8630    0.2060 H   0  0  0  0  0
   -1.0740    0.7900   -0.2400 H   0  0  0  0  0
  1  2  1  0  0  0
  1  3  1  0  0  0
  1  4  1  0  0  0
  2  5  1  0  0  0
M  END
$$$$
