HOM
  CCTOOLS-1004241129

 28 29  0  0  0  0  0  0  0  0999 V2000
   -0.1210    0.3750   -1.4340 C   0  0  0  0  0
   -1.4420    0.2460   -0.9560 C   0  0  0  0  0
   -0.7180    0.0250    1.2670 C   0  0  0  0  0
   -1.0080   -0.1470    2.6120 C   0  0  0  0  0
    0.0200   -0.1980    3.5370 C   0  0  0  0  0
    1.3470   -0.0770    3.1280 C   0  0  0  0  0
    1.6500    0.0930    1.8080 C   0  0  0  0  0
    0.6230    0.1410    0.8590 C   0  0  0  0  0
    0.9190    0.3300   -0.5620 C   0  0  0  0  0
    0.1340    0.5610   -2.9070 C   0  0  0  0  0
    0.2990   -0.8050   -3.5730 C   0  0  0  0  0
    2.3400    0.4650   -1.0460 C   0  0  0  0  0
   -2.3660    0.2870   -1.7480 O   0  0  0  0  0
   -1.7060    0.0780    0.3480 O   0  0  0  0  0
   -0.2650   -0.3680    4.8530 O   0  0  0  0  0
    0.5420   -0.6290   -4.9700 O   0  0  0  0  0
   -2.0340   -0.2420    2.9360 H   0  0  0  0  0
    2.1400   -0.1190    3.8600 H   0  0  0  0  0
    2.6800    0.1870    1.4970 H   0  0  0  0  0
   -0.7080    1.0860   -3.3580 H   0  0  0  0  0
    1.0430    1.1460   -3.0470 H   0  0  0  0  0
    1.1410   -1.3300   -3.1210 H   0  0  0  0  0
   -0.6090   -1.3900   -3.4330 H   0  0  0  0  0
    3.0200    0.4030   -0.1960 H   0  0  0  0  0
    2.5620   -0.3370   -1.7480 H   0  0  0  0  0
    2.4650    1.4280   -1.5420 H   0  0  0  0  0
   -0.2730   -1.3210    5.0170 H   0  0  0  0  0
    0.6400   -1.5120   -5.3510 H   0  0  0  0  0
  1  2  1  0  0  0
  1  9  2  0  0  0
  1 10  1  0  0  0
  2 13  2  0  0  0
  2 14  1  0  0  0
  3  4  2  0  0  0
  3  8  1  0  0  0
  3 14  1  0  0  0
  4  5  1  0  0  0
  4 17  1  0  0  0
  5  6  2  0  0  0
  5 15  1  0  0  0
  6  7  1  0  0  0
  6 18  1  0  0  0
  7  8  2  0  0  0
  7 19  1  0  0  0
  8  9  1  0  0  0
  9 12  1  0  0  0
 10 11  1  0  0  0
 10 20  1  0  0  0
 10 21  1  0  0  0
 11 16  1  0  0  0
 11 22  1  0  0  0
 11 23  1  0  0  0
 12 24  1  0  0  0
 12 25  1  0  0  0
 12 26  1  0  0  0
 15 27  1  0  0  0
 16 28  1  0  0  0
M  END
$$$$
