HOS
  CCTOOLS-0919241029

100102  0  0  1  0  0  0  0  0999 V2000
   -2.0990    1.9000   -4.0190 C   0  0  0  0  0
   -1.4570    1.0740   -2.9020 C   0  0  0  0  0
   -1.5190    1.8600   -1.5860 C   0  0  0  0  0
   -0.8530    3.2280   -1.8450 C   0  0  0  0  0
   -2.8590    2.0960   -1.2130 O   0  0  0  0  0
   -3.6700    1.2350   -0.5740 C   0  0  0  0  0
   -3.8660   -0.0620   -1.0150 C   0  0  0  0  0
   -4.3670    1.6740    0.5570 C   0  0  0  0  0
   -4.2150    2.9580    0.9860 O   0  0  0  0  0
   -5.2130    0.8150    1.2350 C   0  0  0  0  0
   -6.0790    1.3700    2.6350 CL  0  0  0  0  0
   -5.3720   -0.4890    0.7980 C   0  0  0  0  0
   -4.6940   -0.9270   -0.3210 C   0  0  0  0  0
   -4.8390   -2.3510   -0.7920 C   0  0  0  0  0
   -6.0890   -2.8810   -0.3450 O   0  0  0  0  0
   -3.6950   -3.2000   -0.2330 C   0  0  0  0  0
   -3.6090   -3.0110    1.2220 N   0  0  0  0  0
   -4.4520   -3.9840    1.9300 C   0  0  0  0  0
   -2.3950   -2.7840   -0.8790 C   0  0  0  0  0
   -2.4150   -2.2810   -1.9830 O   0  0  0  0  0
   -1.2350   -2.9960   -0.1870 N   0  0  0  0  0
    0.0280   -2.5750   -0.8290 C   0  0  0  0  0
    0.2410   -3.2700   -2.1460 C   0  0  0  0  0
    1.4290   -2.9140   -3.0020 C   0  0  0  0  0
   -0.6070   -4.1840   -2.5490 C   0  0  0  0  0
    0.0610   -1.0820   -0.9990 C   0  0  0  0  0
    1.0040   -0.5630   -1.5720 O   0  0  0  0  0
   -0.9540   -0.3060   -0.5170 N   0  0  0  0  0
   -0.7020    1.1490   -0.5160 C   0  0  0  0  0
   -0.9840    1.7260    0.8470 C   0  0  0  0  0
   -1.8710    1.2610    1.5310 O   0  0  0  0  0
   -0.2490    2.7580    1.3070 N   0  0  0  0  0
   -0.3750    3.4290    2.6090 C   0  0  0  0  0
    0.6660    4.5160    2.6500 C   0  0  0  0  0
    1.3470    4.5270    1.5380 C   0  0  0  0  0
    0.8500    3.4460    0.6150 C   0  0  0  0  0
    1.9600    2.4700    0.3190 C   0  0  0  0  0
    1.9670    1.3800    0.8510 O   0  0  0  0  0
    2.9450    2.8090   -0.5350 N   0  0  0  0  0
    3.9230    1.8690   -0.8870 C   0  0  0  0  0
    4.8310    2.1670   -1.8200 C   0  0  0  0  0
    4.8820    3.5540   -2.4070 C   0  0  0  0  0
    5.8050    1.1150   -2.2860 C   0  0  0  0  0
    5.2680    0.4480   -3.5530 C   0  0  0  0  0
    3.9490    0.5510   -0.2260 C   0  0  0  0  0
    3.3080   -0.3730   -0.6880 O   0  0  0  0  0
    4.6830    0.3710    0.8900 N   0  0  0  0  0
    4.7720   -0.8830    1.4630 C   0  0  0  0  0
    4.1510   -2.0500    0.7940 C   0  0  0  0  0
    3.0080   -2.3640    1.0580 O   0  0  0  0  0
    4.8530   -2.7620   -0.1080 O   0  0  0  0  0
    5.4280   -1.0460    2.6370 C   0  0  0  0  0
    5.6330   -2.3910    3.1820 C   0  0  0  0  0
    6.3770   -2.5630    4.2930 O   0  0  0  0  0
    5.1310   -3.3520    2.6320 O   0  0  0  0  0
   -1.5600    2.8410   -4.1310 H   0  0  0  0  0
   -2.0550    1.3420   -4.9540 H   0  0  0  0  0
   -3.1390    2.1050   -3.7670 H   0  0  0  0  0
   -1.9960    0.1340   -2.7900 H   0  0  0  0  0
   -0.4170    0.8690   -3.1540 H   0  0  0  0  0
   -1.3470    3.7200   -2.6820 H   0  0  0  0  0
   -0.9420    3.8510   -0.9540 H   0  0  0  0  0
    0.2010    3.0810   -2.0800 H   0  0  0  0  0
   -3.3900   -0.4070   -1.9200 H   0  0  0  0  0
   -4.8900    3.5660    0.6560 H   0  0  0  0  0
   -6.0320   -1.1560    1.3330 H   0  0  0  0  0
   -4.8070   -2.3760   -1.8820 H   0  0  0  0  0
   -6.8600   -2.3950   -0.6680 H   0  0  0  0  0
   -3.8830   -4.2520   -0.4510 H   0  0  0  0  0
   -2.6520   -3.0650    1.5380 H   0  0  0  0  0
   -5.5000   -3.7970    1.6930 H   0  0  0  0  0
   -4.1840   -4.9930    1.6170 H   0  0  0  0  0
   -4.2990   -3.8840    3.0040 H   0  0  0  0  0
   -1.2320   -3.4160    0.7010 H   0  0  0  0  0
    0.8630   -2.8590   -0.1640 H   0  0  0  0  0
    2.0680   -2.2140   -2.4640 H   0  0  0  0  0
    1.9930   -3.8170   -3.2340 H   0  0  0  0  0
    1.0850   -2.4540   -3.9280 H   0  0  0  0  0
   -1.4440   -4.4570   -1.9240 H   0  0  0  0  0
   -0.4680   -4.6640   -3.5070 H   0  0  0  0  0
   -1.7790   -0.6880   -0.1800 H   0  0  0  0  0
    0.3670    1.3140   -0.7310 H   0  0  0  0  0
   -1.3690    3.8640    2.7080 H   0  0  0  0  0
   -0.1980    2.7150    3.4130 H   0  0  0  0  0
    0.8260    5.1890    3.4800 H   0  0  0  0  0
    2.1530    5.2110    1.3120 H   0  0  0  0  0
    0.4860    3.8890   -0.3110 H   0  0  0  0  0
    2.9780    3.7050   -0.9080 H   0  0  0  0  0
    4.0510    4.1430   -2.0180 H   0  0  0  0  0
    5.8240    4.0290   -2.1350 H   0  0  0  0  0
    4.8060    3.4920   -3.4930 H   0  0  0  0  0
    6.7670    1.5810   -2.5000 H   0  0  0  0  0
    5.9300    0.3650   -1.5050 H   0  0  0  0  0
    4.3060   -0.0170   -3.3390 H   0  0  0  0  0
    5.1430    1.1990   -4.3340 H   0  0  0  0  0
    5.9720   -0.3120   -3.8900 H   0  0  0  0  0
    5.1480    1.1220    1.2910 H   0  0  0  0  0
    4.4050   -3.5150   -0.5190 H   0  0  0  0  0
    5.8010   -0.1850    3.1720 H   0  0  0  0  0
    6.4840   -3.4680    4.6150 H   0  0  0  0  0
  1  2  1  0  0  0
  1 56  1  0  0  0
  1 57  1  0  0  0
  1 58  1  0  0  0
  2  3  1  0  0  0
  2 59  1  0  0  0
  2 60  1  0  0  0
  3  4  1  0  0  0
  3  5  1  0  0  0
  3 29  1  0  0  0
  4 61  1  0  0  0
  4 62  1  0  0  0
  4 63  1  0  0  0
  5  6  1  0  0  0
  6  7  2  0  0  0
  6  8  1  0  0  0
  7 13  1  0  0  0
  7 64  1  0  0  0
  8  9  1  0  0  0
  8 10  2  0  0  0
  9 65  1  0  0  0
 10 11  1  0  0  0
 10 12  1  0  0  0
 12 13  2  0  0  0
 12 66  1  0  0  0
 13 14  1  0  0  0
 14 15  1  0  0  0
 14 16  1  0  0  0
 14 67  1  0  0  0
 15 68  1  0  0  0
 16 17  1  0  0  0
 16 19  1  0  0  0
 16 69  1  0  0  0
 17 18  1  0  0  0
 17 70  1  0  0  0
 18 71  1  0  0  0
 18 72  1  0  0  0
 18 73  1  0  0  0
 19 20  2  0  0  0
 19 21  1  0  0  0
 21 22  1  0  0  0
 21 74  1  0  0  0
 22 23  1  0  0  0
 22 26  1  0  0  0
 22 75  1  0  0  0
 23 24  1  0  0  0
 23 25  2  0  0  0
 24 76  1  0  0  0
 24 77  1  0  0  0
 24 78  1  0  0  0
 25 79  1  0  0  0
 25 80  1  0  0  0
 26 27  2  0  0  0
 26 28  1  0  0  0
 28 29  1  0  0  0
 28 81  1  0  0  0
 29 30  1  0  0  0
 29 82  1  0  0  0
 30 31  2  0  0  0
 30 32  1  0  0  0
 32 33  1  0  0  0
 32 36  1  0  0  0
 33 34  1  0  0  0
 33 83  1  0  0  0
 33 84  1  0  0  0
 34 35  2  0  0  0
 34 85  1  0  0  0
 35 36  1  0  0  0
 35 86  1  0  0  0
 36 37  1  0  0  0
 36 87  1  0  0  0
 37 38  2  0  0  0
 37 39  1  0  0  0
 39 40  1  0  0  0
 39 88  1  0  0  0
 40 41  2  0  0  0
 40 45  1  0  0  0
 41 42  1  0  0  0
 41 43  1  0  0  0
 42 89  1  0  0  0
 42 90  1  0  0  0
 42 91  1  0  0  0
 43 44  1  0  0  0
 43 92  1  0  0  0
 43 93  1  0  0  0
 44 94  1  0  0  0
 44 95  1  0  0  0
 44 96  1  0  0  0
 45 46  2  0  0  0
 45 47  1  0  0  0
 47 48  1  0  0  0
 47 97  1  0  0  0
 48 49  1  0  0  0
 48 52  2  0  0  0
 49 50  2  0  0  0
 49 51  1  0  0  0
 51 98  1  0  0  0
 52 53  1  0  0  0
 52 99  1  0  0  0
 53 54  1  0  0  0
 53 55  2  0  0  0
 54100  1  0  0  0
M  END
$$$$
