HPE
  CCTOOLS-1004241129

 26 26  0  0  1  0  0  0  0  0999 V2000
    1.6100    0.8130    2.3180 N   0  0  0  0  0
    0.1640    0.6210    2.1360 C   0  0  0  0  0
   -0.3520   -0.3250    3.1880 C   0  0  0  0  0
    0.3700   -1.1850    3.6340 O   0  0  0  0  0
   -0.1010    0.0360    0.7480 C   0  0  0  0  0
    0.4230    0.9980   -0.3190 C   0  0  0  0  0
    0.1600    0.4210   -1.6870 C   0  0  0  0  0
   -1.0230    0.7070   -2.3410 C   0  0  0  0  0
    1.1050   -0.3870   -2.2890 C   0  0  0  0  0
   -1.2640    0.1780   -3.5960 C   0  0  0  0  0
    0.8620   -0.9200   -3.5410 C   0  0  0  0  0
   -0.3210   -0.6350   -4.1950 C   0  0  0  0  0
   -1.6140   -0.2130    3.6300 O   0  0  0  0  0
    2.0370   -0.0950    2.2230 H   0  0  0  0  0
    1.9290    1.3660    1.5360 H   0  0  0  0  0
   -0.3430    1.5810    2.2300 H   0  0  0  0  0
    0.4060   -0.9230    0.6540 H   0  0  0  0  0
   -1.1740   -0.1050    0.6140 H   0  0  0  0  0
   -0.0850    1.9570   -0.2260 H   0  0  0  0  0
    1.4950    1.1400   -0.1850 H   0  0  0  0  0
   -1.7590    1.3420   -1.8730 H   0  0  0  0  0
    2.0300   -0.6100   -1.7770 H   0  0  0  0  0
   -2.1890    0.4000   -4.1070 H   0  0  0  0  0
    1.5990   -1.5560   -4.0100 H   0  0  0  0  0
   -0.5090   -1.0490   -5.1750 H   0  0  0  0  0
   -1.9460   -0.8210    4.3050 H   0  0  0  0  0
  1  2  1  0  0  0
  1 14  1  0  0  0
  1 15  1  0  0  0
  2  3  1  0  0  0
  2  5  1  0  0  0
  2 16  1  0  0  0
  3  4  2  0  0  0
  3 13  1  0  0  0
  5  6  1  0  0  0
  5 17  1  0  0  0
  5 18  1  0  0  0
  6  7  1  0  0  0
  6 19  1  0  0  0
  6 20  1  0  0  0
  7  8  2  0  0  0
  7  9  1  0  0  0
  8 10  1  0  0  0
  8 21  1  0  0  0
  9 11  2  0  0  0
  9 22  1  0  0  0
 10 12  2  0  0  0
 10 23  1  0  0  0
 11 12  1  0  0  0
 11 24  1  0  0  0
 12 25  1  0  0  0
 13 26  1  0  0  0
M  END
$$$$
