HQQ
  CCTOOLS-0919241029

 37 39  0  0  0  0  0  0  0  0999 V2000
   -1.4860    0.8670    3.2310 N   0  0  0  0  0
   -1.5860   -0.3830    3.6930 C   0  0  0  0  0
   -2.5980   -0.6830    4.2930 O   0  0  0  0  0
   -0.6510   -1.3290    3.5430 N   0  0  0  0  0
    0.5070   -1.0920    2.8920 C   0  0  0  0  0
    1.3450   -1.9580    2.7640 O   0  0  0  0  0
    0.7210    0.2990    2.3260 C   0  0  0  0  0
   -0.4000    1.2940    2.5520 C   0  0  0  0  0
   -0.3240    2.4320    2.1390 O   0  0  0  0  0
    1.9980    0.8720    2.9440 C   0  0  0  0  0
    0.9380    0.1720    0.8400 C   0  0  0  0  0
    1.2250    1.2950    0.0870 C   0  0  0  0  0
    1.4250    1.1820   -1.2750 C   0  0  0  0  0
    1.3380   -0.0590   -1.8870 C   0  0  0  0  0
    1.0500   -1.1850   -1.1280 C   0  0  0  0  0
    0.8560   -1.0670    0.2340 C   0  0  0  0  0
    1.5350   -0.1730   -3.2260 O   0  0  0  0  0
    0.3080   -0.1260   -3.8090 C   0  0  0  0  0
   -0.8170    0.1310   -3.0390 C   0  0  0  0  0
   -2.0620    0.1780   -3.6330 C   0  0  0  0  0
   -2.1890   -0.0300   -4.9940 C   0  0  0  0  0
   -1.0690   -0.2870   -5.7640 C   0  0  0  0  0
    0.1790   -0.3300   -5.1750 C   0  0  0  0  0
   -2.2160    1.4860    3.3870 H   0  0  0  0  0
   -0.8110   -2.2110    3.9130 H   0  0  0  0  0
    1.8870    0.9200    4.0270 H   0  0  0  0  0
    2.8430    0.2310    2.6930 H   0  0  0  0  0
    2.1730    1.8740    2.5510 H   0  0  0  0  0
    1.2930    2.2620    0.5630 H   0  0  0  0  0
    1.6490    2.0600   -1.8630 H   0  0  0  0  0
    0.9820   -2.1530   -1.6020 H   0  0  0  0  0
    0.6330   -1.9430    0.8250 H   0  0  0  0  0
   -0.7180    0.2930   -1.9760 H   0  0  0  0  0
   -2.9390    0.3780   -3.0350 H   0  0  0  0  0
   -3.1640    0.0060   -5.4570 H   0  0  0  0  0
   -1.1710   -0.4510   -6.8260 H   0  0  0  0  0
    1.0530   -0.5300   -5.7770 H   0  0  0  0  0
  1  2  1  0  0  0
  1  8  1  0  0  0
  1 24  1  0  0  0
  2  3  2  0  0  0
  2  4  1  0  0  0
  4  5  1  0  0  0
  4 25  1  0  0  0
  5  6  2  0  0  0
  5  7  1  0  0  0
  7  8  1  0  0  0
  7 10  1  0  0  0
  7 11  1  0  0  0
  8  9  2  0  0  0
 10 26  1  0  0  0
 10 27  1  0  0  0
 10 28  1  0  0  0
 11 12  2  0  0  0
 11 16  1  0  0  0
 12 13  1  0  0  0
 12 29  1  0  0  0
 13 14  2  0  0  0
 13 30  1  0  0  0
 14 15  1  0  0  0
 14 17  1  0  0  0
 15 16  2  0  0  0
 15 31  1  0  0  0
 16 32  1  0  0  0
 17 18  1  0  0  0
 18 19  2  0  0  0
 18 23  1  0  0  0
 19 20  1  0  0  0
 19 33  1  0  0  0
 20 21  2  0  0  0
 20 34  1  0  0  0
 21 22  1  0  0  0
 21 35  1  0  0  0
 22 23  2  0  0  0
 22 36  1  0  0  0
 23 37  1  0  0  0
M  END
$$$$
