HQU
  CCTOOLS-1004241129

 21 22  0  0  0  0  0  0  0  0999 V2000
    1.0340   -0.0010    0.1630 N   0  0  0  0  0
    0.1660    0.0070    1.1560 C   0  0  0  0  0
   -1.2210    0.0110    0.9170 C   0  0  0  0  0
   -1.6880    0.0170   -0.3820 C   0  0  0  0  0
   -1.1480    0.0080   -2.7700 C   0  0  0  0  0
   -0.2090   -0.0000   -3.7550 C   0  0  0  0  0
    1.1510   -0.0110   -3.4470 C   0  0  0  0  0
    1.5790   -0.0110   -2.1570 C   0  0  0  0  0
    0.6390   -0.0010   -1.1070 C   0  0  0  0  0
   -0.7450    0.0080   -1.4240 C   0  0  0  0  0
    0.6600    0.0060    2.5510 C   0  0  0  0  0
   -0.1270    0.0140    3.4740 O   0  0  0  0  0
    1.9850   -0.0030    2.7950 O   0  0  0  0  0
   -2.0930    0.0190    1.9570 O   0  0  0  0  0
   -2.7470    0.0260   -0.5920 H   0  0  0  0  0
   -2.1980    0.0170   -3.0220 H   0  0  0  0  0
   -0.5210   -0.0000   -4.7890 H   0  0  0  0  0
    1.8760   -0.0180   -4.2470 H   0  0  0  0  0
    2.6370   -0.0180   -1.9370 H   0  0  0  0  0
    2.3080   -0.0040    3.7070 H   0  0  0  0  0
   -2.2830   -0.9040    2.1700 H   0  0  0  0  0
  1  2  2  0  0  0
  1  9  1  0  0  0
  2  3  1  0  0  0
  2 11  1  0  0  0
  3  4  2  0  0  0
  3 14  1  0  0  0
  4 10  1  0  0  0
  4 15  1  0  0  0
  5  6  2  0  0  0
  5 10  1  0  0  0
  5 16  1  0  0  0
  6  7  1  0  0  0
  6 17  1  0  0  0
  7  8  2  0  0  0
  7 18  1  0  0  0
  8  9  1  0  0  0
  8 19  1  0  0  0
  9 10  2  0  0  0
 11 12  2  0  0  0
 11 13  1  0  0  0
 13 20  1  0  0  0
 14 21  1  0  0  0
M  END
$$$$
