HR7
  CCTOOLS-1004241129

 29 28  0  0  1  0  0  0  0  0999 V2000
    1.4940    1.0380   -0.9400 N   0  0  0  0  0
    1.5940    0.0600    0.1520 C   0  0  0  0  0
    0.3430   -0.8200    0.1640 C   0  0  0  0  0
   -0.8800    0.0360    0.4990 C   0  0  0  0  0
   -2.1310   -0.8440    0.5120 C   0  0  0  0  0
   -3.3020   -0.0230    0.8330 N   0  0  0  0  0
   -4.2600    0.1140   -0.0400 C   0  0  0  0  0
   -5.2950    0.9850    0.2070 N   0  0  0  0  0
   -4.2360   -0.6110   -1.2080 N   0  0  0  0  0
    4.0720    0.0330    0.0500 C   0  0  0  0  0
    3.9760    1.2160    0.2750 O   0  0  0  0  0
    2.8310   -0.8160   -0.0600 C   0  0  0  0  0
    5.2830   -0.5260   -0.1010 O   0  0  0  0  0
    2.2780    1.6730   -0.9300 H   0  0  0  0  0
    1.4150    0.5760   -1.8330 H   0  0  0  0  0
    1.6790    0.5850    1.1030 H   0  0  0  0  0
    0.2090   -1.2760   -0.8170 H   0  0  0  0  0
    0.4560   -1.6020    0.9150 H   0  0  0  0  0
    2.8570   -1.5970    0.6990 H   0  0  0  0  0
    2.7890   -1.2710   -1.0490 H   0  0  0  0  0
   -0.7460    0.4920    1.4800 H   0  0  0  0  0
   -0.9930    0.8180   -0.2520 H   0  0  0  0  0
   -2.2650   -1.2990   -0.4690 H   0  0  0  0  0
   -2.0180   -1.6250    1.2630 H   0  0  0  0  0
   -3.5890   -1.3250   -1.3220 H   0  0  0  0  0
   -4.8650   -0.4080   -1.9180 H   0  0  0  0  0
   -5.3120    1.4960    1.0310 H   0  0  0  0  0
   -6.0080    1.0870   -0.4420 H   0  0  0  0  0
    6.0490    0.0590   -0.0220 H   0  0  0  0  0
  1  2  1  0  0  0
  1 14  1  0  0  0
  1 15  1  0  0  0
  2  3  1  0  0  0
  2 12  1  0  0  0
  2 16  1  0  0  0
  3  4  1  0  0  0
  3 17  1  0  0  0
  3 18  1  0  0  0
  4  5  1  0  0  0
  4 21  1  0  0  0
  4 22  1  0  0  0
  5  6  1  0  0  0
  5 23  1  0  0  0
  5 24  1  0  0  0
  6  7  2  0  0  0
  7  9  1  0  0  0
  7  8  1  0  0  0
  8 27  1  0  0  0
  8 28  1  0  0  0
  9 25  1  0  0  0
  9 26  1  0  0  0
 10 11  2  0  0  0
 10 13  1  0  0  0
 12 10  1  0  0  0
 12 19  1  0  0  0
 12 20  1  0  0  0
 13 29  1  0  0  0
M  END
$$$$
