HRD
  CCTOOLS-0919241029

 30 32  0  0  0  0  0  0  0  0999 V2000
    2.6340   -1.4670   -0.0000 N   0  0  0  0  0
    2.9830    0.6980   -0.0010 N   0  0  0  0  0
    3.5600   -0.5390   -0.0000 C   0  0  0  0  0
    5.8570    0.3460    0.0010 C   0  0  0  0  0
    1.6070    0.5080   -0.0010 C   0  0  0  0  0
    0.5300    1.3700   -0.0010 C   0  0  0  0  0
   -0.7640    0.8540    0.0000 C   0  0  0  0  0
   -3.2790   -0.2130    0.0000 C   0  0  0  0  0
   -0.9770   -0.5470    0.0010 C   0  0  0  0  0
    0.1120   -1.4100   -0.0010 C   0  0  0  0  0
    1.4060   -0.8890   -0.0010 C   0  0  0  0  0
    4.9160   -0.7770    0.0010 N   0  0  0  0  0
   -1.9410    1.7320    0.0000 C   0  0  0  0  0
   -1.8230    2.9440   -0.0000 O   0  0  0  0  0
   -3.1600    1.1470    0.0010 N   0  0  0  0  0
   -4.5390   -0.7590    0.0000 N   0  0  0  0  0
   -4.7060   -2.2150   -0.0000 C   0  0  0  0  0
   -2.2500   -1.0200    0.0010 N   0  0  0  0  0
    5.6960    0.9540    0.8910 H   0  0  0  0  0
    6.8780   -0.0360    0.0020 H   0  0  0  0  0
    0.6890    2.4390   -0.0000 H   0  0  0  0  0
   -0.0420   -2.4790   -0.0010 H   0  0  0  0  0
   -4.2370   -2.6340   -0.8900 H   0  0  0  0  0
   -4.2370   -2.6350    0.8900 H   0  0  0  0  0
    5.6970    0.9540   -0.8890 H   0  0  0  0  0
    5.2480   -1.6890    0.0010 H   0  0  0  0  0
   -5.3180   -0.1820    0.0000 H   0  0  0  0  0
   -5.7680   -2.4590   -0.0000 H   0  0  0  0  0
   -3.9580    1.6990    0.0010 H   0  0  0  0  0
    3.4470    1.5490   -0.0010 H   0  0  0  0  0
  1 11  1  0  0  0
  2  5  1  0  0  0
  2 30  1  0  0  0
  3  1  2  0  0  0
  3  2  1  0  0  0
  4 12  1  0  0  0
  4 19  1  0  0  0
  4 20  1  0  0  0
  4 25  1  0  0  0
  5  6  1  0  0  0
  6  7  2  0  0  0
  6 21  1  0  0  0
  7 13  1  0  0  0
  8 15  1  0  0  0
  8 16  1  0  0  0
  9  7  1  0  0  0
  9 18  1  0  0  0
 10  9  2  0  0  0
 10 22  1  0  0  0
 11  5  2  0  0  0
 11 10  1  0  0  0
 12  3  1  0  0  0
 12 26  1  0  0  0
 13 14  2  0  0  0
 13 15  1  0  0  0
 15 29  1  0  0  0
 16 27  1  0  0  0
 17 16  1  0  0  0
 17 23  1  0  0  0
 17 24  1  0  0  0
 17 28  1  0  0  0
 18  8  2  0  0  0
M  END
$$$$
