HSX
  CCTOOLS-1004241129

 25 25  0  0  1  0  0  0  0  0999 V2000
   -2.6730   -1.2410    0.5240 C   0  0  0  0  0
   -1.2420   -1.1050    0.4970 O   0  0  0  0  0
   -3.2690    0.1790    0.5570 C   0  0  0  0  0
   -4.1150    0.3930   -0.5750 O   0  0  0  0  0
   -2.0330    1.1100    0.4920 C   0  0  0  0  0
   -2.2780    2.2240   -0.3700 O   0  0  0  0  0
   -0.9530    0.1750   -0.1070 C   0  0  0  0  0
    0.4480    0.6500    0.2840 C   0  0  0  0  0
    1.4240   -0.2220   -0.2900 O   0  0  0  0  0
    3.0090   -0.0200   -0.0850 P   0  0  0  0  0
    3.3910    1.3460   -0.5070 O   0  0  0  0  0
    3.3790   -0.2260    1.4680 O   0  0  0  0  0
    3.8060   -1.1000   -0.9740 O   0  0  0  0  0
   -3.1180   -1.9280   -0.6480 O   0  0  0  0  0
   -2.9780   -1.7920    1.4140 H   0  0  0  0  0
   -3.8220    0.3400    1.4820 H   0  0  0  0  0
   -4.8750   -0.2040   -0.6150 H   0  0  0  0  0
   -1.7480    1.4470    1.4880 H   0  0  0  0  0
   -3.0080    2.7900   -0.0830 H   0  0  0  0  0
   -1.0510    0.1180   -1.1910 H   0  0  0  0  0
    0.6040    1.6630   -0.0860 H   0  0  0  0  0
    0.5460    0.6400    1.3690 H   0  0  0  0  0
    3.1550   -1.1010    1.8130 H   0  0  0  0  0
    4.7680   -1.0370   -0.9000 H   0  0  0  0  0
   -2.7770   -2.8290   -0.7290 H   0  0  0  0  0
  1 14  1  0  0  0
  1  3  1  0  0  0
  1 15  1  0  0  0
  2  1  1  0  0  0
  2  7  1  0  0  0
  3  4  1  0  0  0
  3 16  1  0  0  0
  4 17  1  0  0  0
  5  3  1  0  0  0
  5  6  1  0  0  0
  5 18  1  0  0  0
  6 19  1  0  0  0
  7  5  1  0  0  0
  7 20  1  0  0  0
  8  7  1  0  0  0
  8 21  1  0  0  0
  8 22  1  0  0  0
  9  8  1  0  0  0
 10  9  1  0  0  0
 10 12  1  0  0  0
 11 10  2  0  0  0
 12 23  1  0  0  0
 13 10  1  0  0  0
 13 24  1  0  0  0
 14 25  1  0  0  0
M  END
$$$$
