HT7
  CCTOOLS-1004241129

 30 31  0  0  1  0  0  0  0  0999 V2000
    1.1860    1.0530    0.2800 N   0  0  0  0  0
    1.5990   -0.2900   -0.1470 C   0  0  0  0  0
    0.5970   -0.8310   -1.1690 C   0  0  0  0  0
   -0.7440   -1.0180   -0.5080 C   0  0  0  0  0
   -1.7760    0.0050   -0.3270 C   0  0  0  0  0
   -1.8730    1.3560   -0.6650 C   0  0  0  0  0
   -3.0040    2.0550   -0.3490 C   0  0  0  0  0
   -4.0580    1.4320    0.3060 C   0  0  0  0  0
   -3.9840    0.1000    0.6470 C   0  0  0  0  0
   -2.8420   -0.6310    0.3360 C   0  0  0  0  0
   -2.4710   -1.9420    0.5360 N   0  0  0  0  0
   -1.2210   -2.1550    0.0220 C   0  0  0  0  0
    2.9890   -0.2180   -0.7840 C   0  0  0  0  0
    3.9970    0.1970    0.2560 C   0  0  0  0  0
    3.6410    0.4130    1.3900 O   0  0  0  0  0
    5.2900    0.3270   -0.0770 O   0  0  0  0  0
    1.1500    1.6860   -0.5050 H   0  0  0  0  0
    0.3000    1.0230    0.7610 H   0  0  0  0  0
    1.6300   -0.9530    0.7170 H   0  0  0  0  0
    0.5010   -0.1240   -1.9930 H   0  0  0  0  0
    0.9500   -1.7890   -1.5520 H   0  0  0  0  0
    3.2580   -1.1970   -1.1810 H   0  0  0  0  0
    2.9800    0.5120   -1.5940 H   0  0  0  0  0
   -0.6950   -3.0990    0.0430 H   0  0  0  0  0
   -1.0570    1.8480   -1.1730 H   0  0  0  0  0
   -3.0780    3.1010   -0.6090 H   0  0  0  0  0
   -4.9450    1.9980    0.5490 H   0  0  0  0  0
   -4.8090   -0.3760    1.1570 H   0  0  0  0  0
   -3.0160   -2.6150    0.9730 H   0  0  0  0  0
    5.9000    0.5950    0.6240 H   0  0  0  0  0
  1  2  1  0  0  0
  1 17  1  0  0  0
  1 18  1  0  0  0
  2  3  1  0  0  0
  2 13  1  0  0  0
  2 19  1  0  0  0
  3  4  1  0  0  0
  3 20  1  0  0  0
  3 21  1  0  0  0
  4  5  1  0  0  0
  4 12  2  0  0  0
  5  6  1  0  0  0
  5 10  2  0  0  0
  6  7  2  0  0  0
  6 25  1  0  0  0
  7  8  1  0  0  0
  7 26  1  0  0  0
  8  9  2  0  0  0
  8 27  1  0  0  0
  9 10  1  0  0  0
  9 28  1  0  0  0
 10 11  1  0  0  0
 11 12  1  0  0  0
 11 29  1  0  0  0
 12 24  1  0  0  0
 13 14  1  0  0  0
 13 22  1  0  0  0
 13 23  1  0  0  0
 14 15  2  0  0  0
 14 16  1  0  0  0
 16 30  1  0  0  0
M  END
$$$$
