HTD
  CCTOOLS-0919241029

 44 46  0  0  1  0  0  0  0  0999 V2000
   -1.8570   -1.6900    0.3800 S   0  0  0  0  0
   -3.3560   -0.8200    0.9590 C   0  0  0  0  0
   -3.1330    0.5600    0.4500 N   0  0  0  0  0
   -1.9020    0.7430   -0.1400 C   0  0  0  0  0
   -1.0620   -0.2550   -0.3030 C   0  0  0  0  0
    0.3020   -0.1950   -0.9420 C   0  0  0  0  0
    1.3650   -0.0130    0.1430 C   0  0  0  0  0
    2.6580    0.0450   -0.4630 O   0  0  0  0  0
    4.0150    0.2310    0.3830 P   0  0  0  0  0
    6.8470   -0.1870   -0.3840 P   0  0  0  0  0
   -7.7890    1.0480   -0.3380 N   0  0  0  0  0
    4.1010   -0.8250    1.4170 O   0  0  0  0  0
    7.0000   -1.3340    0.5390 O   0  0  0  0  0
   -7.8560   -0.2630   -0.4440 C   0  0  0  0  0
    4.0120    1.6760    1.0920 O   0  0  0  0  0
    7.5280   -0.5430   -1.7990 O   0  0  0  0  0
   -6.8030   -1.0310   -0.2520 N   0  0  0  0  0
    5.2820    0.1200   -0.6040 O   0  0  0  0  0
    7.5660    1.1080    0.2460 O   0  0  0  0  0
   -4.5350   -1.3400    0.2530 N   0  0  0  0  0
   -5.6230   -0.5000    0.0640 C   0  0  0  0  0
   -5.5200    0.8820    0.1870 C   0  0  0  0  0
   -6.6490    1.6500   -0.0280 C   0  0  0  0  0
   -4.2100    1.5670    0.5690 C   0  0  0  0  0
   -9.1740   -0.9030   -0.7960 C   0  0  0  0  0
   -1.5080    2.1200   -0.6090 C   0  0  0  0  0
   -3.4690   -0.8560    2.0430 H   0  0  0  0  0
    0.4900   -1.1210   -1.4840 H   0  0  0  0  0
    0.3410    0.6460   -1.6340 H   0  0  0  0  0
    1.1760    0.9140    0.6850 H   0  0  0  0  0
    1.3250   -0.8540    0.8350 H   0  0  0  0  0
    3.9570    2.4180    0.4740 H   0  0  0  0  0
    8.4730   -0.7400   -1.7430 H   0  0  0  0  0
    7.5050    1.9000   -0.3060 H   0  0  0  0  0
   -4.5520   -2.2540   -0.0730 H   0  0  0  0  0
   -6.6040    2.7260    0.0570 H   0  0  0  0  0
   -4.2730    1.9400    1.5910 H   0  0  0  0  0
   -4.0120    2.3920   -0.1140 H   0  0  0  0  0
   -9.2590   -0.9880   -1.8800 H   0  0  0  0  0
   -9.2270   -1.8950   -0.3490 H   0  0  0  0  0
   -9.9900   -0.2880   -0.4150 H   0  0  0  0  0
   -1.0010    2.6480    0.1990 H   0  0  0  0  0
   -0.8370    2.0340   -1.4640 H   0  0  0  0  0
   -2.4000    2.6740   -0.9010 H   0  0  0  0  0
  2  1  1  0  0  0
  2 27  1  0  0  0
  3  2  1  0  0  0
  4  3  1  0  0  0
  4  5  2  0  0  0
  5  1  1  0  0  0
  5  6  1  0  0  0
  6  7  1  0  0  0
  6 28  1  0  0  0
  6 29  1  0  0  0
  7  8  1  0  0  0
  7 30  1  0  0  0
  7 31  1  0  0  0
  8  9  1  0  0  0
  9 18  1  0  0  0
 10 16  1  0  0  0
 10 19  1  0  0  0
 11 23  2  0  0  0
 11 14  1  0  0  0
 12  9  2  0  0  0
 13 10  2  0  0  0
 14 17  2  0  0  0
 15  9  1  0  0  0
 15 32  1  0  0  0
 16 33  1  0  0  0
 17 21  1  0  0  0
 18 10  1  0  0  0
 19 34  1  0  0  0
 20  2  1  0  0  0
 20 35  1  0  0  0
 21 20  1  0  0  0
 22 21  2  0  0  0
 22 24  1  0  0  0
 23 22  1  0  0  0
 23 36  1  0  0  0
 24  3  1  0  0  0
 24 37  1  0  0  0
 24 38  1  0  0  0
 25 14  1  0  0  0
 25 39  1  0  0  0
 25 40  1  0  0  0
 25 41  1  0  0  0
 26  4  1  0  0  0
 26 42  1  0  0  0
 26 43  1  0  0  0
 26 44  1  0  0  0
M  END
$$$$
