HTH
  CCTOOLS-0919241029

 26 25  0  0  1  0  0  0  0  0999 V2000
   -2.7760   -0.4650   -0.3610 C   0  0  0  0  0
   -3.9840    0.0540    0.1990 O   0  0  0  0  0
   -1.5770    0.2670    0.2470 C   0  0  0  0  0
   -1.6130    1.6420   -0.1400 O   0  0  0  0  0
   -0.2820   -0.3710   -0.2580 C   0  0  0  0  0
   -0.2460   -1.7470    0.1290 O   0  0  0  0  0
    0.9170    0.3600    0.3500 C   0  0  0  0  0
    2.2110   -0.1950   -0.2500 C   0  0  0  0  0
    3.4090    0.5360    0.3570 C   0  0  0  0  0
    4.7030   -0.0190   -0.2420 C   0  0  0  0  0
   -2.7020   -1.5300   -0.1400 H   0  0  0  0  0
   -2.7830   -0.3170   -1.4400 H   0  0  0  0  0
   -4.7870   -0.3640   -0.1410 H   0  0  0  0  0
   -1.6190    0.1940    1.3340 H   0  0  0  0  0
   -1.5790    1.7830   -1.0960 H   0  0  0  0  0
   -0.2400   -0.2980   -1.3440 H   0  0  0  0  0
   -0.2800   -1.8880    1.0850 H   0  0  0  0  0
    0.8430    1.4250    0.1290 H   0  0  0  0  0
    0.9240    0.2120    1.4290 H   0  0  0  0  0
    2.2850   -1.2600   -0.0300 H   0  0  0  0  0
    2.2040   -0.0470   -1.3300 H   0  0  0  0  0
    3.3350    1.6010    0.1370 H   0  0  0  0  0
    3.4170    0.3880    1.4370 H   0  0  0  0  0
    4.7780   -1.0840   -0.0220 H   0  0  0  0  0
    4.6960    0.1290   -1.3220 H   0  0  0  0  0
    5.5570    0.5020    0.1910 H   0  0  0  0  0
  1  2  1  0  0  0
  1  3  1  0  0  0
  1 11  1  0  0  0
  1 12  1  0  0  0
  2 13  1  0  0  0
  3  4  1  0  0  0
  3  5  1  0  0  0
  3 14  1  0  0  0
  4 15  1  0  0  0
  5  6  1  0  0  0
  5  7  1  0  0  0
  5 16  1  0  0  0
  6 17  1  0  0  0
  7  8  1  0  0  0
  7 18  1  0  0  0
  7 19  1  0  0  0
  8  9  1  0  0  0
  8 20  1  0  0  0
  8 21  1  0  0  0
  9 10  1  0  0  0
  9 22  1  0  0  0
  9 23  1  0  0  0
 10 24  1  0  0  0
 10 25  1  0  0  0
 10 26  1  0  0  0
M  END
$$$$
