HTO
  CCTOOLS-0919241029

 26 25  0  0  1  0  0  0  0  0999 V2000
   -0.5690   -0.3970   -2.7650 C   0  0  0  0  0
    0.1900   -0.4020   -3.9750 O   0  0  0  0  0
    0.3790   -0.3040   -1.5680 C   0  0  0  0  0
    1.1420    0.8990   -1.6570 O   0  0  0  0  0
   -0.4340   -0.2980   -0.2720 C   0  0  0  0  0
   -1.3160    0.8250   -0.2680 O   0  0  0  0  0
    0.5140   -0.2060    0.9240 C   0  0  0  0  0
   -0.2990   -0.2000    2.2200 C   0  0  0  0  0
    0.6490   -0.1080    3.4170 C   0  0  0  0  0
   -0.1640   -0.1020    4.7130 C   0  0  0  0  0
   -1.1510   -1.3160   -2.6970 H   0  0  0  0  0
   -1.2420    0.4600   -2.7620 H   0  0  0  0  0
   -0.4430   -0.4610   -4.7030 H   0  0  0  0  0
    1.0510   -1.1620   -1.5700 H   0  0  0  0  0
    0.5100    1.6320   -1.6510 H   0  0  0  0  0
   -1.0160   -1.2170   -0.2040 H   0  0  0  0  0
   -0.7620    1.6150   -0.3300 H   0  0  0  0  0
    1.0960    0.7120    0.8560 H   0  0  0  0  0
    1.1860   -1.0640    0.9220 H   0  0  0  0  0
   -0.8810   -1.1190    2.2880 H   0  0  0  0  0
   -0.9720    0.6570    2.2230 H   0  0  0  0  0
    1.2310    0.8100    3.3490 H   0  0  0  0  0
    1.3210   -0.9650    3.4150 H   0  0  0  0  0
    0.5110   -0.0360    5.5660 H   0  0  0  0  0
   -0.8370    0.7550    4.7160 H   0  0  0  0  0
   -0.7460   -1.0200    4.7810 H   0  0  0  0  0
  1  2  1  0  0  0
  1  3  1  0  0  0
  1 11  1  0  0  0
  1 12  1  0  0  0
  2 13  1  0  0  0
  3  4  1  0  0  0
  3  5  1  0  0  0
  3 14  1  0  0  0
  4 15  1  0  0  0
  5  6  1  0  0  0
  5  7  1  0  0  0
  5 16  1  0  0  0
  6 17  1  0  0  0
  7  8  1  0  0  0
  7 18  1  0  0  0
  7 19  1  0  0  0
  8  9  1  0  0  0
  8 20  1  0  0  0
  8 21  1  0  0  0
  9 10  1  0  0  0
  9 22  1  0  0  0
  9 23  1  0  0  0
 10 24  1  0  0  0
 10 25  1  0  0  0
 10 26  1  0  0  0
M  END
$$$$
