HTQ
  CCTOOLS-0919241029

 41 43  0  0  1  0  0  0  0  0999 V2000
    2.6000    1.3190   -0.6950 C   0  0  0  0  0
    1.9390    0.4700   -1.7930 C   0  0  0  0  0
    1.4360   -0.8370   -1.1740 C   0  0  0  0  0
    2.6210   -1.5410   -0.4190 C   0  0  0  0  0
    3.2160   -0.5360    0.5810 C   0  0  0  0  0
    2.0540    0.1150    1.3660 C   0  0  0  0  0
    1.6470    1.3420    0.5230 C   0  0  0  0  0
    3.7960    0.5820   -0.2090 N   0  0  0  0  0
    4.4770    1.4650    0.7470 C   0  0  0  0  0
    0.3660   -0.5470   -0.2370 O   0  0  0  0  0
   -0.6070   -1.4490   -0.0300 C   0  0  0  0  0
   -0.5920   -2.5010   -0.6230 O   0  0  0  0  0
   -1.7180   -1.1480    0.9420 C   0  0  0  0  0
   -2.5320    0.0130    0.4320 C   0  0  0  0  0
   -2.2520    1.2960    0.8640 C   0  0  0  0  0
   -3.5540   -0.2040   -0.4730 C   0  0  0  0  0
   -2.9990    2.3610    0.3960 C   0  0  0  0  0
   -4.3040    0.8610   -0.9370 C   0  0  0  0  0
   -4.0250    2.1440   -0.5040 C   0  0  0  0  0
   -2.5590   -2.2960    1.0760 O   0  0  0  0  0
    2.8470    2.3220   -1.0440 H   0  0  0  0  0
    1.1000    1.0180   -2.2220 H   0  0  0  0  0
    2.6690    0.2490   -2.5720 H   0  0  0  0  0
    1.0610   -1.4900   -1.9620 H   0  0  0  0  0
    3.3810   -1.8480   -1.1380 H   0  0  0  0  0
    2.2470   -2.4140    0.1150 H   0  0  0  0  0
    3.9500   -1.0000    1.2410 H   0  0  0  0  0
    1.2190   -0.5790    1.4540 H   0  0  0  0  0
    2.3930    0.4300    2.3530 H   0  0  0  0  0
    0.6110    1.2500    0.1960 H   0  0  0  0  0
    1.7850    2.2590    1.0950 H   0  0  0  0  0
    5.2590    0.9090    1.2630 H   0  0  0  0  0
    4.9210    2.3050    0.2130 H   0  0  0  0  0
    3.7560    1.8380    1.4750 H   0  0  0  0  0
   -1.2930   -0.8950    1.9130 H   0  0  0  0  0
   -1.4510    1.4660    1.5680 H   0  0  0  0  0
   -3.7720   -1.2060   -0.8110 H   0  0  0  0  0
   -2.7810    3.3640    0.7350 H   0  0  0  0  0
   -5.1050    0.6910   -1.6410 H   0  0  0  0  0
   -4.6080    2.9760   -0.8700 H   0  0  0  0  0
   -2.9140   -2.4860    0.1960 H   0  0  0  0  0
  1  2  1  0  0  0
  1  7  1  0  0  0
  1  8  1  0  0  0
  1 21  1  0  0  0
  2  3  1  0  0  0
  2 22  1  0  0  0
  2 23  1  0  0  0
  3  4  1  0  0  0
  3 10  1  0  0  0
  3 24  1  0  0  0
  4  5  1  0  0  0
  4 25  1  0  0  0
  4 26  1  0  0  0
  5  6  1  0  0  0
  5  8  1  0  0  0
  5 27  1  0  0  0
  6  7  1  0  0  0
  6 28  1  0  0  0
  6 29  1  0  0  0
  7 30  1  0  0  0
  7 31  1  0  0  0
  8  9  1  0  0  0
  9 32  1  0  0  0
  9 33  1  0  0  0
  9 34  1  0  0  0
 10 11  1  0  0  0
 11 12  2  0  0  0
 11 13  1  0  0  0
 13 14  1  0  0  0
 13 20  1  0  0  0
 13 35  1  0  0  0
 14 15  2  0  0  0
 14 16  1  0  0  0
 15 17  1  0  0  0
 15 36  1  0  0  0
 16 18  2  0  0  0
 16 37  1  0  0  0
 17 19  2  0  0  0
 17 38  1  0  0  0
 18 19  1  0  0  0
 18 39  1  0  0  0
 19 40  1  0  0  0
 20 41  1  0  0  0
M  END
$$$$
