HTY
  CCTOOLS-1004241129

 25 25  0  0  1  0  0  0  0  0999 V2000
   -3.0950   -0.1680   -0.2380 C   0  0  0  0  0
   -1.2650   -1.6950   -0.7070 N   0  0  0  0  0
   -3.7130   -1.1290    0.1530 O   0  0  0  0  0
   -1.6180   -0.2820   -0.5170 C   0  0  0  0  0
   -0.8310    0.2860    0.6660 C   0  0  0  0  0
   -1.1750    1.6600    0.8510 O   0  0  0  0  0
    0.6460    0.1710    0.3870 C   0  0  0  0  0
    4.6880   -0.1440   -0.3760 O   0  0  0  0  0
    3.3560   -0.0400   -0.1250 C   0  0  0  0  0
    1.3550   -0.9170    0.8620 C   0  0  0  0  0
    1.2880    1.1500   -0.3480 C   0  0  0  0  0
    2.7090   -1.0250    0.6080 C   0  0  0  0  0
    2.6410    1.0470   -0.6050 C   0  0  0  0  0
   -3.7250    1.0020   -0.4300 O   0  0  0  0  0
   -0.2920   -1.7940   -0.9590 H   0  0  0  0  0
   -1.4820   -2.2370    0.1160 H   0  0  0  0  0
   -1.3740    0.2780   -1.4190 H   0  0  0  0  0
   -1.0750   -0.2750    1.5680 H   0  0  0  0  0
   -0.9840    2.2200    0.0860 H   0  0  0  0  0
    4.8980   -0.6140   -1.1950 H   0  0  0  0  0
    0.8510   -1.6820    1.4330 H   0  0  0  0  0
    0.7310    1.9970   -0.7220 H   0  0  0  0  0
    3.2630   -1.8720    0.9830 H   0  0  0  0  0
    3.1430    1.8140   -1.1760 H   0  0  0  0  0
   -4.6730    1.0260   -0.2420 H   0  0  0  0  0
  1  3  2  0  0  0
  1  4  1  0  0  0
  1 14  1  0  0  0
  2  4  1  0  0  0
  2 15  1  0  0  0
  2 16  1  0  0  0
  4  5  1  0  0  0
  4 17  1  0  0  0
  5  6  1  0  0  0
  5  7  1  0  0  0
  5 18  1  0  0  0
  6 19  1  0  0  0
  7 10  2  0  0  0
  7 11  1  0  0  0
  8  9  1  0  0  0
  8 20  1  0  0  0
  9 12  2  0  0  0
  9 13  1  0  0  0
 10 12  1  0  0  0
 10 21  1  0  0  0
 11 13  2  0  0  0
 11 22  1  0  0  0
 12 23  1  0  0  0
 13 24  1  0  0  0
 14 25  1  0  0  0
M  END
$$$$
