HUP
  CCTOOLS-0919241030

 36 38  0  0  1  0  0  0  0  0999 V2000
   -3.2420   -0.3320    0.2360 C   0  0  0  0  0
   -4.3960   -0.4100    0.6240 O   0  0  0  0  0
   -2.2300   -0.5870    1.0800 N   0  0  0  0  0
   -2.9680    0.0210   -1.0960 C   0  0  0  0  0
   -1.6710    0.1060   -1.4990 C   0  0  0  0  0
   -0.6310   -0.1600   -0.5870 C   0  0  0  0  0
   -0.9230   -0.5120    0.6800 C   0  0  0  0  0
    0.1160   -0.8530    1.7170 C   0  0  0  0  0
    1.4830   -0.2800    1.3270 C   0  0  0  0  0
    1.4090    1.2230    1.3620 C   0  0  0  0  0
    3.5290   -2.1960    0.5660 C   0  0  0  0  0
    2.6400   -1.5660   -0.4750 C   0  0  0  0  0
    1.7220   -0.7030   -0.1180 C   0  0  0  0  0
    0.7830   -0.0220   -1.1020 C   0  0  0  0  0
    0.9130   -0.6130   -2.4410 N   0  0  0  0  0
    1.1520    1.4690   -1.1040 C   0  0  0  0  0
    1.2630    1.9660    0.3140 C   0  0  0  0  0
    1.1960    3.4560    0.5280 C   0  0  0  0  0
   -2.4300   -0.8300    1.9970 H   0  0  0  0  0
   -3.7730    0.2200   -1.7880 H   0  0  0  0  0
   -1.4390    0.3770   -2.5190 H   0  0  0  0  0
   -0.1860   -0.4350    2.6780 H   0  0  0  0  0
    0.1930   -1.9360    1.8060 H   0  0  0  0  0
    2.2650   -0.6490    1.9900 H   0  0  0  0  0
    1.4830    1.7120    2.3220 H   0  0  0  0  0
    4.0870   -1.4170    1.0870 H   0  0  0  0  0
    2.9170   -2.7440    1.2820 H   0  0  0  0  0
    4.2250   -2.8810    0.0830 H   0  0  0  0  0
    2.7610   -1.8250   -1.5170 H   0  0  0  0  0
    0.2970   -0.1590   -3.0980 H   0  0  0  0  0
    1.8700   -0.5800   -2.7590 H   0  0  0  0  0
    2.1080    1.6050   -1.6100 H   0  0  0  0  0
    0.3820    2.0320   -1.6310 H   0  0  0  0  0
    1.2860    3.6740    1.5920 H   0  0  0  0  0
    2.0100    3.9380   -0.0120 H   0  0  0  0  0
    0.2420    3.8330    0.1600 H   0  0  0  0  0
  1  2  2  0  0  0
  1  3  1  0  0  0
  1  4  1  0  0  0
  3  7  1  0  0  0
  3 19  1  0  0  0
  4  5  2  0  0  0
  4 20  1  0  0  0
  5  6  1  0  0  0
  5 21  1  0  0  0
  6  7  2  0  0  0
  6 14  1  0  0  0
  7  8  1  0  0  0
  8  9  1  0  0  0
  8 22  1  0  0  0
  8 23  1  0  0  0
  9 10  1  0  0  0
  9 13  1  0  0  0
  9 24  1  0  0  0
 10 17  2  0  0  0
 10 25  1  0  0  0
 11 12  1  0  0  0
 11 26  1  0  0  0
 11 27  1  0  0  0
 11 28  1  0  0  0
 12 13  2  0  0  0
 12 29  1  0  0  0
 13 14  1  0  0  0
 14 15  1  0  0  0
 14 16  1  0  0  0
 15 30  1  0  0  0
 15 31  1  0  0  0
 16 17  1  0  0  0
 16 32  1  0  0  0
 16 33  1  0  0  0
 17 18  1  0  0  0
 18 34  1  0  0  0
 18 35  1  0  0  0
 18 36  1  0  0  0
M  END
$$$$
