HUX
  CCTOOLS-0919241030

 40 43  0  0  1  0  0  0  0  0999 V2000
   -0.4150    0.7610    5.3950 CL  0  0  0  0  0
   -0.0310    0.2170    3.7920 C   0  0  0  0  0
   -1.5240    0.0480    0.5000 N   0  0  0  0  0
   -0.6460   -0.0770    1.4970 C   0  0  0  0  0
   -1.2650   -0.3560   -0.7300 C   0  0  0  0  0
    2.1390   -1.6800   -0.3540 N   0  0  0  0  0
    0.9150   -1.1000   -0.0610 C   0  0  0  0  0
   -0.9510    0.3610    2.7970 C   0  0  0  0  0
    1.2120   -0.3600    3.5430 C   0  0  0  0  0
    0.6180   -0.6630    1.2480 C   0  0  0  0  0
   -2.3490   -0.1600   -1.7600 C   0  0  0  0  0
   -0.0500   -0.9350   -1.0500 C   0  0  0  0  0
   -1.7680   -0.2460   -3.1710 C   0  0  0  0  0
   -0.8720    0.9270   -3.4280 C   0  0  0  0  0
   -0.9780   -1.5550   -3.2820 C   0  0  0  0  0
    0.4210    0.8760   -3.4050 C   0  0  0  0  0
    1.2000   -0.3760   -3.1260 C   0  0  0  0  0
    1.1870    2.1450   -3.6790 C   0  0  0  0  0
    0.2900   -1.4040   -2.4390 C   0  0  0  0  0
    1.4340    2.8860   -2.3630 C   0  0  0  0  0
    1.5410   -0.7970    2.2950 C   0  0  0  0  0
    2.8040   -1.7900    0.3430 H   0  0  0  0  0
    2.3320   -1.9760   -1.2580 H   0  0  0  0  0
   -1.9100    0.8100    3.0060 H   0  0  0  0  0
    1.9230   -0.4630    4.3490 H   0  0  0  0  0
   -2.8070    0.8190   -1.6190 H   0  0  0  0  0
   -3.1090   -0.9320   -1.6360 H   0  0  0  0  0
   -2.5800   -0.2490   -3.8980 H   0  0  0  0  0
   -1.3360    1.8770   -3.6460 H   0  0  0  0  0
   -1.5780   -2.3820   -2.9030 H   0  0  0  0  0
   -0.7110   -1.7380   -4.3230 H   0  0  0  0  0
    1.5800   -0.7930   -4.0580 H   0  0  0  0  0
    2.0360   -0.1360   -2.4690 H   0  0  0  0  0
    0.6110    2.7800   -4.3510 H   0  0  0  0  0
    2.1430    1.8990   -4.1410 H   0  0  0  0  0
    0.8050   -2.3630   -2.3830 H   0  0  0  0  0
    1.9880    3.8030   -2.5610 H   0  0  0  0  0
    0.4780    3.1320   -1.9000 H   0  0  0  0  0
    2.0110    2.2510   -1.6910 H   0  0  0  0  0
    2.5070   -1.2430    2.1130 H   0  0  0  0  0
  1  2  1  0  0  0
  2  8  2  0  0  0
  2  9  1  0  0  0
  3  4  2  0  0  0
  3  5  1  0  0  0
  4  8  1  0  0  0
  4 10  1  0  0  0
  5 11  1  0  0  0
  5 12  2  0  0  0
  6  7  1  0  0  0
  6 22  1  0  0  0
  6 23  1  0  0  0
  7 10  2  0  0  0
  7 12  1  0  0  0
  8 24  1  0  0  0
  9 21  2  0  0  0
  9 25  1  0  0  0
 10 21  1  0  0  0
 11 13  1  0  0  0
 11 26  1  0  0  0
 11 27  1  0  0  0
 12 19  1  0  0  0
 13 14  1  0  0  0
 13 15  1  0  0  0
 13 28  1  0  0  0
 14 16  2  0  0  0
 14 29  1  0  0  0
 15 19  1  0  0  0
 15 30  1  0  0  0
 15 31  1  0  0  0
 16 17  1  0  0  0
 16 18  1  0  0  0
 17 19  1  0  0  0
 17 32  1  0  0  0
 17 33  1  0  0  0
 18 20  1  0  0  0
 18 34  1  0  0  0
 18 35  1  0  0  0
 19 36  1  0  0  0
 20 37  1  0  0  0
 20 38  1  0  0  0
 20 39  1  0  0  0
 21 40  1  0  0  0
M  END
$$$$
