HXA
  CCTOOLS-0919241030

 56 55  0  0  0  0  0  0  0  0999 V2000
   -0.9240   -0.2630   -8.6190 C   0  0  0  0  0
   -0.4220   -1.3590   -8.5400 O   0  0  0  0  0
   -1.9220   -0.0440   -9.4900 O   0  0  0  0  0
   -0.4310    0.8560   -7.7400 C   0  0  0  0  0
    0.7000    0.3440   -6.8480 C   0  0  0  0  0
    1.1930    1.4640   -5.9690 C   0  0  0  0  0
    1.2700    1.2950   -4.6730 C   0  0  0  0  0
    1.0310   -0.0680   -4.0760 C   0  0  0  0  0
    2.1840   -0.4320   -3.1770 C   0  0  0  0  0
    1.9860   -0.5990   -1.8930 C   0  0  0  0  0
    0.6470   -0.2660   -1.2870 C   0  0  0  0  0
    0.0400   -1.5110   -0.6940 C   0  0  0  0  0
   -0.3790   -1.5080    0.5450 C   0  0  0  0  0
   -0.4150   -0.2200    1.3260 C   0  0  0  0  0
   -1.7880   -0.0280    1.9170 C   0  0  0  0  0
   -1.9240    0.1890    3.2010 C   0  0  0  0  0
   -0.7040    0.3380    4.0730 C   0  0  0  0  0
   -0.7960    1.6280    4.8480 C   0  0  0  0  0
   -0.6520    1.6210    6.1500 C   0  0  0  0  0
   -0.2270    0.3590    6.8550 C   0  0  0  0  0
    0.9600    0.6510    7.7360 C   0  0  0  0  0
    0.9360    0.3110    9.0010 C   0  0  0  0  0
   -0.2000   -0.5190    9.5370 C   0  0  0  0  0
    0.3610   -1.7350   10.2770 C   0  0  0  0  0
   -2.2390   -0.7630  -10.0540 H   0  0  0  0  0
   -1.2500    1.2160   -7.1170 H   0  0  0  0  0
   -0.0630    1.6710   -8.3630 H   0  0  0  0  0
    1.5190   -0.0150   -7.4710 H   0  0  0  0  0
    0.3320   -0.4700   -6.2250 H   0  0  0  0  0
    1.4840    2.4070   -6.4080 H   0  0  0  0  0
    1.5050    2.1310   -4.0310 H   0  0  0  0  0
    0.9460   -0.8040   -4.8750 H   0  0  0  0  0
    0.1080   -0.0530   -3.4950 H   0  0  0  0  0
    3.1740   -0.5560   -3.5920 H   0  0  0  0  0
    2.7830   -0.9750   -1.2680 H   0  0  0  0  0
   -0.0120    0.1270   -2.0590 H   0  0  0  0  0
    0.7790    0.4810   -0.5050 H   0  0  0  0  0
   -0.0470   -2.4060   -1.2930 H   0  0  0  0  0
   -0.7010   -2.4290    1.0090 H   0  0  0  0  0
   -0.1840    0.6130    0.6620 H   0  0  0  0  0
    0.3220   -0.2600    2.1280 H   0  0  0  0  0
   -2.6600   -0.0690    1.2800 H   0  0  0  0  0
   -2.9100    0.2600    3.6350 H   0  0  0  0  0
    0.1890    0.3520    3.4490 H   0  0  0  0  0
   -0.6490   -0.4990    4.7680 H   0  0  0  0  0
   -0.9800    2.5570    4.3300 H   0  0  0  0  0
   -0.8380    2.5210    6.7180 H   0  0  0  0  0
    0.0440   -0.3950    6.1170 H   0  0  0  0  0
   -1.0500   -0.0100    7.4660 H   0  0  0  0  0
    1.8300    1.1400    7.3240 H   0  0  0  0  0
    1.7320    0.6270    9.6590 H   0  0  0  0  0
   -0.8260   -0.8550    8.7100 H   0  0  0  0  0
   -0.7960    0.0800   10.2240 H   0  0  0  0  0
   -0.4600   -2.3360   10.6650 H   0  0  0  0  0
    0.9580   -2.3350    9.5900 H   0  0  0  0  0
    0.9870   -1.3990   11.1040 H   0  0  0  0  0
  1  2  2  0  0  0
  1  3  1  0  0  0
  1  4  1  0  0  0
  3 25  1  0  0  0
  4  5  1  0  0  0
  4 26  1  0  0  0
  4 27  1  0  0  0
  5  6  1  0  0  0
  5 28  1  0  0  0
  5 29  1  0  0  0
  6  7  2  0  0  0
  6 30  1  0  0  0
  7  8  1  0  0  0
  7 31  1  0  0  0
  8  9  1  0  0  0
  8 32  1  0  0  0
  8 33  1  0  0  0
  9 10  2  0  0  0
  9 34  1  0  0  0
 10 11  1  0  0  0
 10 35  1  0  0  0
 11 12  1  0  0  0
 11 36  1  0  0  0
 11 37  1  0  0  0
 12 13  2  0  0  0
 12 38  1  0  0  0
 13 14  1  0  0  0
 13 39  1  0  0  0
 14 15  1  0  0  0
 14 40  1  0  0  0
 14 41  1  0  0  0
 15 16  2  0  0  0
 15 42  1  0  0  0
 16 17  1  0  0  0
 16 43  1  0  0  0
 17 18  1  0  0  0
 17 44  1  0  0  0
 17 45  1  0  0  0
 18 19  2  0  0  0
 18 46  1  0  0  0
 19 20  1  0  0  0
 19 47  1  0  0  0
 20 21  1  0  0  0
 20 48  1  0  0  0
 20 49  1  0  0  0
 21 22  2  0  0  0
 21 50  1  0  0  0
 22 23  1  0  0  0
 22 51  1  0  0  0
 23 24  1  0  0  0
 23 52  1  0  0  0
 23 53  1  0  0  0
 24 54  1  0  0  0
 24 55  1  0  0  0
 24 56  1  0  0  0
M  END
$$$$
