HXY
  CCTOOLS-0919241030

 27 28  0  0  0  0  0  0  0  0999 V2000
   -1.8030    0.1380   -0.0950 C   0  0  0  0  0
    3.1420    0.3490    0.2090 N   0  0  0  0  0
   -3.6250   -0.2740    0.2040 BR  0  0  0  0  0
   -1.2230    1.2150    0.5500 C   0  0  0  0  0
    0.1090    1.5160    0.3320 C   0  0  0  0  0
    0.8600    0.7390   -0.5300 C   0  0  0  0  0
    2.3120    1.0670   -0.7670 C   0  0  0  0  0
    4.5420    0.8240    0.1660 C   0  0  0  0  0
    5.4400   -0.3910    0.4640 C   0  0  0  0  0
    4.4670   -1.5780    0.6450 C   0  0  0  0  0
    3.1970   -1.1020   -0.1030 C   0  0  0  0  0
    0.2810   -0.3370   -1.1750 C   0  0  0  0  0
   -1.0490   -0.6410   -0.9540 C   0  0  0  0  0
   -1.8100    1.8220    1.2240 H   0  0  0  0  0
    0.5620    2.3570    0.8350 H   0  0  0  0  0
    2.4660    2.1400   -0.6550 H   0  0  0  0  0
    2.5930    0.7630   -1.7760 H   0  0  0  0  0
    4.7690    1.2200   -0.8230 H   0  0  0  0  0
    4.6960    1.5940    0.9220 H   0  0  0  0  0
    6.1140   -0.5780   -0.3720 H   0  0  0  0  0
    6.0090   -0.2250    1.3790 H   0  0  0  0  0
    4.8700   -2.4810    0.1860 H   0  0  0  0  0
    4.2530   -1.7440    1.7010 H   0  0  0  0  0
    2.3120   -1.6110    0.2780 H   0  0  0  0  0
    3.3000   -1.2610   -1.1760 H   0  0  0  0  0
    0.8680   -0.9430   -1.8490 H   0  0  0  0  0
   -1.5010   -1.4850   -1.4540 H   0  0  0  0  0
  1  3  1  0  0  0
  1  4  2  0  0  0
  1 13  1  0  0  0
  2  7  1  0  0  0
  2  8  1  0  0  0
  2 11  1  0  0  0
  4  5  1  0  0  0
  4 14  1  0  0  0
  5  6  2  0  0  0
  5 15  1  0  0  0
  6  7  1  0  0  0
  6 12  1  0  0  0
  7 16  1  0  0  0
  7 17  1  0  0  0
  8  9  1  0  0  0
  8 18  1  0  0  0
  8 19  1  0  0  0
  9 10  1  0  0  0
  9 20  1  0  0  0
  9 21  1  0  0  0
 10 11  1  0  0  0
 10 22  1  0  0  0
 10 23  1  0  0  0
 11 24  1  0  0  0
 11 25  1  0  0  0
 12 13  2  0  0  0
 12 26  1  0  0  0
 13 27  1  0  0  0
M  END
$$$$
