HZ3
  CCTOOLS-0919241030

 47 50  0  0  1  0  0  0  0  0999 V2000
   -0.8990   -2.4680    0.6130 C   0  0  0  0  0
   -1.8360   -3.3700    1.0690 C   0  0  0  0  0
   -3.0840   -3.4430    0.4640 C   0  0  0  0  0
   -4.0050   -4.3340    0.9160 O   0  0  0  0  0
   -3.3950   -2.6070   -0.6010 C   0  0  0  0  0
   -2.4640   -1.7010   -1.0630 C   0  0  0  0  0
   -1.2080   -1.6210   -0.4550 C   0  0  0  0  0
   -0.2100   -0.6550   -0.9450 C   0  0  0  0  0
    1.1400   -0.9620   -1.6050 C   0  0  0  0  0
    1.2300    0.1460   -2.5660 O   0  0  0  0  0
    2.1900   -0.5490   -0.5680 C   0  0  0  0  0
    3.0820   -1.4320    0.2080 C   0  0  0  0  0
    3.0230   -2.7670    0.0380 O   0  0  0  0  0
    3.9300   -3.5750    0.8340 C   0  0  0  0  0
    3.8700   -0.9560    1.0000 O   0  0  0  0  0
    2.1220    0.8070   -0.5180 C   0  0  0  0  0
    2.9250    1.7170    0.3230 C   0  0  0  0  0
    2.7310    3.0480    0.2500 O   0  0  0  0  0
    3.5560    3.8820    1.1060 C   0  0  0  0  0
    3.7590    1.2650    1.0810 O   0  0  0  0  0
    1.0200    1.1880   -1.5520 C   0  0  0  0  0
   -0.2880    0.7010   -0.9170 C   0  0  0  0  0
   -1.3890    1.5250   -0.3880 C   0  0  0  0  0
   -2.1400    2.3290   -1.2500 C   0  0  0  0  0
   -3.1690    3.0980   -0.7510 C   0  0  0  0  0
   -3.4610    3.0740    0.6070 C   0  0  0  0  0
   -4.4760    3.8340    1.0940 O   0  0  0  0  0
   -2.7170    2.2770    1.4670 C   0  0  0  0  0
   -1.6900    1.5000    0.9770 C   0  0  0  0  0
    0.0720   -2.4120    1.0840 H   0  0  0  0  0
   -1.5990   -4.0220    1.8960 H   0  0  0  0  0
   -4.5800   -3.9860    1.6120 H   0  0  0  0  0
   -4.3670   -2.6660   -1.0670 H   0  0  0  0  0
   -2.7060   -1.0520   -1.8920 H   0  0  0  0  0
    1.2490   -1.9650   -2.0170 H   0  0  0  0  0
    3.7790   -4.6280    0.6000 H   0  0  0  0  0
    4.9590   -3.2960    0.6070 H   0  0  0  0  0
    3.7330   -3.4050    1.8930 H   0  0  0  0  0
    3.3000    4.9300    0.9490 H   0  0  0  0  0
    3.3810    3.6170    2.1490 H   0  0  0  0  0
    4.6070    3.7250    0.8630 H   0  0  0  0  0
    1.0280    2.2170   -1.9130 H   0  0  0  0  0
   -1.9140    2.3480   -2.3060 H   0  0  0  0  0
   -3.7490    3.7200   -1.4170 H   0  0  0  0  0
   -5.3330    3.3850    1.1030 H   0  0  0  0  0
   -2.9480    2.2620    2.5230 H   0  0  0  0  0
   -1.1160    0.8770    1.6460 H   0  0  0  0  0
  1  2  2  0  0  0
  1 30  1  0  0  0
  2  3  1  0  0  0
  2 31  1  0  0  0
  3  4  1  0  0  0
  4 32  1  0  0  0
  5  3  2  0  0  0
  5 33  1  0  0  0
  6  5  1  0  0  0
  6 34  1  0  0  0
  7  6  2  0  0  0
  7  1  1  0  0  0
  8  7  1  0  0  0
  8 22  2  0  0  0
  9  8  1  0  0  0
  9 35  1  0  0  0
 10  9  1  0  0  0
 10 21  1  0  0  0
 11  9  1  0  0  0
 11 16  2  0  0  0
 12 13  1  0  0  0
 12 11  1  0  0  0
 13 14  1  0  0  0
 14 36  1  0  0  0
 14 37  1  0  0  0
 14 38  1  0  0  0
 15 12  2  0  0  0
 16 21  1  0  0  0
 17 16  1  0  0  0
 17 18  1  0  0  0
 19 18  1  0  0  0
 19 39  1  0  0  0
 19 40  1  0  0  0
 19 41  1  0  0  0
 20 17  2  0  0  0
 21 22  1  0  0  0
 21 42  1  0  0  0
 22 23  1  0  0  0
 23 29  2  0  0  0
 23 24  1  0  0  0
 24 25  2  0  0  0
 24 43  1  0  0  0
 25 26  1  0  0  0
 25 44  1  0  0  0
 26 27  1  0  0  0
 27 45  1  0  0  0
 28 26  2  0  0  0
 28 46  1  0  0  0
 29 28  1  0  0  0
 29 47  1  0  0  0
M  END
$$$$
