I13
  CCTOOLS-0919241031

 54 55  0  0  0  0  0  0  0  0999 V2000
    1.2810    2.6200    0.4010 C   0  0  0  0  0
    0.7740    3.8530   -0.3500 C   0  0  0  0  0
    1.0350    2.7990    1.9010 C   0  0  0  0  0
   -0.7720    1.3490    0.0710 C   0  0  0  0  0
   -2.8290    0.2150   -0.3160 C   0  0  0  0  0
   -3.4810   -0.9890   -0.0910 C   0  0  0  0  0
   -4.8620   -1.0280   -0.0490 C   0  0  0  0  0
    0.5660    1.4320   -0.0720 N   0  0  0  0  0
   -1.4300    0.2560   -0.3650 N   0  0  0  0  0
   -5.5580   -2.3110    0.1910 N   0  3  0  0  0
   -4.9450    1.3340   -0.4560 C   0  0  0  0  0
   -5.5930    0.1330   -0.2310 C   0  0  0  0  0
   -4.9150   -3.3330    0.3510 O   0  0  0  0  0
   -6.7750   -2.3460    0.2280 O   0  5  0  0  0
   -7.3280    0.0810   -0.1770 CL  0  0  0  0  0
   -3.5650    1.3790   -0.4980 C   0  0  0  0  0
   -1.3850    2.2600    0.5920 O   0  0  0  0  0
    2.7570    2.4500    0.1510 C   0  0  0  0  0
    3.2970    1.1850    0.0520 C   0  0  0  0  0
    4.6650    1.0300   -0.1800 C   0  0  0  0  0
    5.4770    2.1580   -0.3110 C   0  0  0  0  0
    4.9230    3.4180   -0.2100 C   0  0  0  0  0
    3.5660    3.5650    0.0150 C   0  0  0  0  0
    5.2510   -0.3210   -0.2870 C   0  0  0  0  0
    6.7280   -0.4840   -0.5380 C   0  0  0  0  0
    4.4960   -1.3640   -0.1650 N   0  0  0  0  0
    5.0580   -2.6600   -0.2670 O   0  0  0  0  0
    4.1100   -3.7180   -0.1120 C   0  0  0  0  0
    4.8240   -5.0650   -0.2410 C   0  0  0  0  0
    5.7700   -5.2260    0.8720 N   0  0  0  0  0
   -0.2940    3.9760   -0.1690 H   0  0  0  0  0
    1.3060    4.7370    0.0030 H   0  0  0  0  0
    0.9490    3.7250   -1.4180 H   0  0  0  0  0
    1.3950    1.9210    2.4360 H   0  0  0  0  0
    1.5670    3.6830    2.2530 H   0  0  0  0  0
   -0.0330    2.9220    2.0820 H   0  0  0  0  0
   -2.9110   -1.8950    0.0500 H   0  0  0  0  0
    1.0550    0.7050   -0.4880 H   0  0  0  0  0
   -0.9340   -0.5020   -0.7120 H   0  0  0  0  0
   -5.5180    2.2390   -0.5970 H   0  0  0  0  0
   -3.0600    2.3160   -0.6780 H   0  0  0  0  0
    2.6640    0.3170    0.1550 H   0  0  0  0  0
    6.5360    2.0450   -0.4910 H   0  0  0  0  0
    5.5500    4.2920   -0.3110 H   0  0  0  0  0
    3.1380    4.5530    0.0930 H   0  0  0  0  0
    7.2550   -0.5300    0.4150 H   0  0  0  0  0
    6.9020   -1.4060   -1.0930 H   0  0  0  0  0
    7.0940    0.3630   -1.1160 H   0  0  0  0  0
    3.6430   -3.6470    0.8700 H   0  0  0  0  0
    3.3460   -3.6370   -0.8850 H   0  0  0  0  0
    4.0890   -5.8700   -0.2110 H   0  0  0  0  0
    5.3650   -5.1010   -1.1860 H   0  0  0  0  0
    6.2550   -6.1090    0.8090 H   0  0  0  0  0
    6.4230   -4.4570    0.9050 H   0  0  0  0  0
  1  8  1  0  0  0
  1 18  1  0  0  0
  1  3  1  0  0  0
  2  1  1  0  0  0
  2 31  1  0  0  0
  2 32  1  0  0  0
  2 33  1  0  0  0
  3 34  1  0  0  0
  3 35  1  0  0  0
  3 36  1  0  0  0
  4  9  1  0  0  0
  4  8  1  0  0  0
  5 16  1  0  0  0
  5  9  1  0  0  0
  6  5  2  0  0  0
  6 37  1  0  0  0
  7 12  2  0  0  0
  7  6  1  0  0  0
  8 38  1  0  0  0
  9 39  1  0  0  0
 10  7  1  0  0  0
 11 16  2  0  0  0
 11 40  1  0  0  0
 12 11  1  0  0  0
 13 10  2  0  0  0
 14 10  1  0  0  0
 15 12  1  0  0  0
 16 41  1  0  0  0
 17  4  2  0  0  0
 18 19  2  0  0  0
 19 20  1  0  0  0
 19 42  1  0  0  0
 20 24  1  0  0  0
 21 20  2  0  0  0
 21 43  1  0  0  0
 22 21  1  0  0  0
 22 44  1  0  0  0
 23 22  2  0  0  0
 23 18  1  0  0  0
 23 45  1  0  0  0
 24 25  1  0  0  0
 25 46  1  0  0  0
 25 47  1  0  0  0
 25 48  1  0  0  0
 26 24  2  0  0  0
 26 27  1  0  0  0
 28 27  1  0  0  0
 28 29  1  0  0  0
 28 49  1  0  0  0
 28 50  1  0  0  0
 29 30  1  0  0  0
 29 51  1  0  0  0
 29 52  1  0  0  0
 30 53  1  0  0  0
 30 54  1  0  0  0
M  CHG  1  10   1
M  CHG  1  14  -1
M  END
$$$$
