I3A
  CCTOOLS-0919241031

 18 19  0  0  0  0  0  0  0  0999 V2000
   -5.2640    1.5410    5.2380 O   0  0  0  0  0
   -4.2540    1.6570    4.5200 C   0  0  0  0  0
   -3.8590    0.6900    3.5360 C   0  0  0  0  0
   -4.5470   -0.4720    3.2740 C   0  0  0  0  0
   -3.8820   -1.1420    2.2820 N   0  0  0  0  0
   -2.7680   -0.4320    1.8940 C   0  0  0  0  0
   -2.7300    0.7290    2.6690 C   0  0  0  0  0
   -1.6770    1.6440    2.4700 C   0  0  0  0  0
   -0.7040    1.3640    1.5040 C   0  0  0  0  0
   -0.7670    0.1970    0.7450 C   0  0  0  0  0
   -1.8020   -0.7240    0.9250 C   0  0  0  0  0
   -3.6190    2.5700    4.6510 H   0  0  0  0  0
   -5.4500   -0.8850    3.7020 H   0  0  0  0  0
   -4.1670   -2.0290    1.8910 H   0  0  0  0  0
   -1.6140    2.5580    3.0540 H   0  0  0  0  0
    0.1100    2.0670    1.3450 H   0  0  0  0  0
    0.0000   -0.0000    0.0000 H   0  0  0  0  0
   -1.8520   -1.6310    0.3310 H   0  0  0  0  0
  1  2  2  0  0  0
  2  3  1  0  0  0
  2 12  1  0  0  0
  3  4  2  0  0  0
  3  7  1  0  0  0
  4  5  1  0  0  0
  4 13  1  0  0  0
  5  6  1  0  0  0
  5 14  1  0  0  0
  6  7  2  0  0  0
  6 11  1  0  0  0
  7  8  1  0  0  0
  8  9  2  0  0  0
  8 15  1  0  0  0
  9 10  1  0  0  0
  9 16  1  0  0  0
 10 11  2  0  0  0
 10 17  1  0  0  0
 11 18  1  0  0  0
M  END
$$$$
