I46
  CCTOOLS-0919241031

 28 30  0  0  0  0  0  0  0  0999 V2000
   -1.2620    0.0150    1.0550 C   0  0  0  0  0
   -2.2710   -1.0810   -0.8400 C   0  0  0  0  0
   -2.3480    0.8630    1.1370 C   0  0  0  0  0
   -3.3570   -0.2360   -0.7450 C   0  0  0  0  0
    3.0250    0.1740    0.7140 C   0  0  0  0  0
    3.4770    1.4750    0.7560 C   0  0  0  0  0
    1.1480    0.9480   -0.5650 C   0  0  0  0  0
   -0.0990   -3.2360   -0.1140 C   0  0  0  0  0
   -1.2180   -0.9630    0.0650 C   0  0  0  0  0
   -3.3950    0.7390    0.2380 C   0  0  0  0  0
    1.8340   -0.1100    0.0370 C   0  0  0  0  0
    1.6750    2.2240   -0.4800 C   0  0  0  0  0
   -0.0520   -1.8770   -0.0270 C   0  0  0  0  0
    1.3130   -1.4960   -0.0390 C   0  0  0  0  0
    1.1700   -3.6900   -0.1730 N   0  0  0  0  0
    2.8040    2.4470    0.1690 N   0  0  0  0  0
    2.0360   -2.5910   -0.1300 N   0  0  0  0  0
   -4.4610    1.5650    0.3280 F   0  0  0  0  0
    1.0280    3.2540   -1.0670 F   0  0  0  0  0
   -0.4460    0.1130    1.7560 H   0  0  0  0  0
   -2.2410   -1.8390   -1.6100 H   0  0  0  0  0
   -2.3810    1.6250    1.9020 H   0  0  0  0  0
   -4.1740   -0.3260   -1.4460 H   0  0  0  0  0
    3.5840   -0.6160    1.1920 H   0  0  0  0  0
    4.3960    1.7030    1.2760 H   0  0  0  0  0
    0.2250    0.7710   -1.0970 H   0  0  0  0  0
   -0.9930   -3.8420   -0.1290 H   0  0  0  0  0
    1.4370   -4.6210   -0.2360 H   0  0  0  0  0
  1  3  1  0  0  0
  1 20  1  0  0  0
  2  9  1  0  0  0
  2  4  2  0  0  0
  2 21  1  0  0  0
  3 22  1  0  0  0
  4 10  1  0  0  0
  4 23  1  0  0  0
  5 11  1  0  0  0
  5 24  1  0  0  0
  6  5  2  0  0  0
  6 16  1  0  0  0
  6 25  1  0  0  0
  7 26  1  0  0  0
  8 27  1  0  0  0
  9  1  2  0  0  0
 10  3  2  0  0  0
 10 18  1  0  0  0
 11  7  2  0  0  0
 11 14  1  0  0  0
 12  7  1  0  0  0
 12 19  1  0  0  0
 13  8  2  0  0  0
 13  9  1  0  0  0
 14 13  1  0  0  0
 15  8  1  0  0  0
 15 28  1  0  0  0
 16 12  2  0  0  0
 17 14  2  0  0  0
 17 15  1  0  0  0
M  END
$$$$
