I63
  CCTOOLS-0919241031

 83 85  0  0  1  0  0  0  0  0999 V2000
    4.1430   -7.0430   -0.1640 O   0  0  0  0  0
    3.3020   -6.1170   -0.6490 C   0  0  0  0  0
    2.9230   -6.1860   -1.7940 O   0  0  0  0  0
    2.8290   -4.9910    0.2340 C   0  0  0  0  0
    1.9480   -4.1430   -0.5050 O   0  0  0  0  0
    1.4290   -3.0710    0.1500 C   0  0  0  0  0
    0.5670   -2.2060   -0.5080 C   0  0  0  0  0
    1.7560   -2.8440    1.4790 C   0  0  0  0  0
    1.2270   -1.7540    2.1420 C   0  0  0  0  0
    0.3720   -0.8900    1.4830 C   0  0  0  0  0
    0.0400   -1.1170    0.1610 C   0  0  0  0  0
   -0.8970   -0.1770   -0.5530 C   0  0  0  0  0
   -2.3410   -0.5100   -0.1730 C   0  0  0  0  0
   -3.2970    0.3600   -0.9900 C   0  0  0  0  0
   -4.7200    0.0320   -0.6160 C   0  0  0  0  0
   -5.4000   -0.9610   -1.2960 C   0  0  0  0  0
   -6.7060   -1.2650   -0.9570 C   0  0  0  0  0
   -7.3340   -0.5760    0.0670 C   0  0  0  0  0
   -8.6180   -0.8740    0.4020 O   0  0  0  0  0
   -9.2590   -1.9110   -0.3440 C   0  0  0  0  0
   -6.6490    0.4230    0.7520 C   0  0  0  0  0
   -7.2610    1.1030    1.7590 O   0  0  0  0  0
   -6.4970    2.1150    2.4180 C   0  0  0  0  0
   -5.3390    0.7200    0.4110 C   0  0  0  0  0
   -0.5980    1.1900   -0.1660 O   0  0  0  0  0
    0.3040    1.8500   -0.9090 C   0  0  0  0  0
    0.8260    1.3040   -1.8520 O   0  0  0  0  0
    0.6650    3.2730   -0.5680 C   0  0  0  0  0
    2.0700    3.3360   -0.1420 N   0  0  0  0  0
    2.6770    4.6520    0.0980 C   0  0  0  0  0
    2.4740    5.5230   -1.1460 C   0  0  0  0  0
    0.9840    5.5720   -1.4920 C   0  0  0  0  0
    0.4820    4.1600   -1.8040 C   0  0  0  0  0
    2.7880    2.2080    0.0270 C   0  0  0  0  0
    2.3170    1.1360   -0.2940 O   0  0  0  0  0
    4.1590    2.2760    0.6070 C   0  0  0  0  0
    4.5690    3.3150    1.0660 O   0  0  0  0  0
    5.0340    1.0490    0.6200 C   0  0  0  0  0
    4.3480   -0.0580    1.4230 C   0  0  0  0  0
    5.2630    0.5700   -0.8150 C   0  0  0  0  0
    6.3790    1.3890    1.2650 C   0  0  0  0  0
    7.2670    0.1430    1.2790 C   0  0  0  0  0
    4.4180   -7.7460   -0.7680 H   0  0  0  0  0
    2.3010   -5.4010    1.0950 H   0  0  0  0  0
    3.6880   -4.4130    0.5760 H   0  0  0  0  0
    0.3080   -2.3830   -1.5410 H   0  0  0  0  0
    2.4240   -3.5180    1.9940 H   0  0  0  0  0
    1.4810   -1.5770    3.1770 H   0  0  0  0  0
   -0.0410   -0.0390    2.0040 H   0  0  0  0  0
   -0.7700   -0.2860   -1.6300 H   0  0  0  0  0
   -2.5380   -1.5620   -0.3820 H   0  0  0  0  0
   -2.4910   -0.3170    0.8890 H   0  0  0  0  0
   -3.1000    1.4110   -0.7820 H   0  0  0  0  0
   -3.1470    0.1660   -2.0530 H   0  0  0  0  0
   -4.9110   -1.4990   -2.0950 H   0  0  0  0  0
   -7.2360   -2.0400   -1.4900 H   0  0  0  0  0
  -10.2760   -2.0480    0.0240 H   0  0  0  0  0
   -9.2880   -1.6350   -1.3980 H   0  0  0  0  0
   -8.7020   -2.8410   -0.2260 H   0  0  0  0  0
   -7.1020    2.5770    3.1970 H   0  0  0  0  0
   -5.6090    1.6660    2.8650 H   0  0  0  0  0
   -6.1960    2.8720    1.6940 H   0  0  0  0  0
   -4.8040    1.4920    0.9440 H   0  0  0  0  0
    0.0230    3.6300    0.2370 H   0  0  0  0  0
    2.1990    5.1240    0.9570 H   0  0  0  0  0
    3.7430    4.5330    0.2940 H   0  0  0  0  0
    2.8350    6.5320   -0.9470 H   0  0  0  0  0
    3.0290    5.0960   -1.9820 H   0  0  0  0  0
    0.4280    5.9750   -0.6460 H   0  0  0  0  0
    0.8350    6.2110   -2.3620 H   0  0  0  0  0
    1.0540    3.7450   -2.6340 H   0  0  0  0  0
   -0.5740    4.2010   -2.0730 H   0  0  0  0  0
    3.3900   -0.2990    0.9640 H   0  0  0  0  0
    4.9810   -0.9450    1.4330 H   0  0  0  0  0
    4.1850    0.2830    2.4460 H   0  0  0  0  0
    5.7520    1.3590   -1.3880 H   0  0  0  0  0
    5.8960   -0.3170   -0.8050 H   0  0  0  0  0
    4.3050    0.3290   -1.2750 H   0  0  0  0  0
    6.8680    2.1770    0.6930 H   0  0  0  0  0
    6.2160    1.7300    2.2870 H   0  0  0  0  0
    7.4300   -0.1980    0.2560 H   0  0  0  0  0
    8.2260    0.3850    1.7380 H   0  0  0  0  0
    6.7780   -0.6460    1.8510 H   0  0  0  0  0
  1 43  1  0  0  0
  2  1  1  0  0  0
  3  2  2  0  0  0
  4  2  1  0  0  0
  4  5  1  0  0  0
  4 44  1  0  0  0
  4 45  1  0  0  0
  5  6  1  0  0  0
  6  7  2  0  0  0
  7 11  1  0  0  0
  7 46  1  0  0  0
  8  9  2  0  0  0
  8  6  1  0  0  0
  8 47  1  0  0  0
  9 10  1  0  0  0
  9 48  1  0  0  0
 10 11  2  0  0  0
 10 49  1  0  0  0
 11 12  1  0  0  0
 12 13  1  0  0  0
 12 50  1  0  0  0
 13 14  1  0  0  0
 13 51  1  0  0  0
 13 52  1  0  0  0
 14 15  1  0  0  0
 14 53  1  0  0  0
 14 54  1  0  0  0
 15 24  1  0  0  0
 16 15  2  0  0  0
 16 17  1  0  0  0
 16 55  1  0  0  0
 17 18  2  0  0  0
 17 56  1  0  0  0
 18 21  1  0  0  0
 18 19  1  0  0  0
 20 19  1  0  0  0
 20 57  1  0  0  0
 20 58  1  0  0  0
 20 59  1  0  0  0
 21 22  1  0  0  0
 22 23  1  0  0  0
 23 60  1  0  0  0
 23 61  1  0  0  0
 23 62  1  0  0  0
 24 21  2  0  0  0
 24 63  1  0  0  0
 25 12  1  0  0  0
 26 25  1  0  0  0
 26 27  2  0  0  0
 28 26  1  0  0  0
 28 64  1  0  0  0
 29 28  1  0  0  0
 29 34  1  0  0  0
 30 29  1  0  0  0
 30 65  1  0  0  0
 30 66  1  0  0  0
 31 32  1  0  0  0
 31 30  1  0  0  0
 31 67  1  0  0  0
 31 68  1  0  0  0
 32 33  1  0  0  0
 32 69  1  0  0  0
 32 70  1  0  0  0
 33 28  1  0  0  0
 33 71  1  0  0  0
 33 72  1  0  0  0
 34 35  2  0  0  0
 36 34  1  0  0  0
 36 38  1  0  0  0
 37 36  2  0  0  0
 38 40  1  0  0  0
 38 41  1  0  0  0
 39 38  1  0  0  0
 39 73  1  0  0  0
 39 74  1  0  0  0
 39 75  1  0  0  0
 40 76  1  0  0  0
 40 77  1  0  0  0
 40 78  1  0  0  0
 41 42  1  0  0  0
 41 79  1  0  0  0
 41 80  1  0  0  0
 42 81  1  0  0  0
 42 82  1  0  0  0
 42 83  1  0  0  0
M  END
$$$$
