ID2
  CCTOOLS-0919241032

 28 29  0  0  1  0  0  0  0  0999 V2000
    1.3750   -0.0450    0.9220 C   0  0  0  0  0
    1.6500    0.1480   -1.3900 C   0  0  0  0  0
    0.2520   -0.0030   -1.5570 C   0  0  0  0  0
   -0.5250   -0.1740   -0.4660 C   0  0  0  0  0
    1.8630   -0.0680    2.0360 O   0  0  0  0  0
   -0.7990    2.4290    5.1850 O   0  0  0  0  0
   -0.1070    1.1790    5.1950 C   0  0  0  0  0
   -0.7630    0.2250    4.1940 C   0  0  0  0  0
   -0.6410    0.7360    2.8500 O   0  0  0  0  0
   -0.7960   -0.3810    1.9600 C   0  0  0  0  0
    0.0470   -0.1960    0.7760 N   0  0  0  0  0
    2.1750    0.1200   -0.1480 N   0  0  0  0  0
    2.3720    0.3040   -2.3580 O   0  0  0  0  0
   -0.5970    0.0350   -3.4720 I   0  0  0  0  0
   -0.3570   -1.6420    2.7280 C   0  0  0  0  0
    0.0000   -1.1220    4.1430 C   0  0  0  0  0
   -0.4680   -2.0200    5.1510 O   0  0  0  0  0
   -1.5930   -0.2920   -0.5750 H   0  0  0  0  0
   -0.3560    2.9990    5.8280 H   0  0  0  0  0
    0.9330    1.3380    4.9160 H   0  0  0  0  0
   -0.1540    0.7450    6.1940 H   0  0  0  0  0
   -1.8100    0.0630    4.4500 H   0  0  0  0  0
   -1.8400   -0.4740    1.6600 H   0  0  0  0  0
    3.1310    0.2240   -0.0250 H   0  0  0  0  0
   -1.1760   -2.3590    2.7840 H   0  0  0  0  0
    0.5140   -2.0940    2.2540 H   0  0  0  0  0
    1.0740   -0.9610    4.2380 H   0  0  0  0  0
   -0.0200   -2.8640    5.0040 H   0  0  0  0  0
  1  5  2  0  0  0
  1 11  1  0  0  0
  1 12  1  0  0  0
  2  3  1  0  0  0
  2 12  1  0  0  0
  2 13  2  0  0  0
  3  4  2  0  0  0
  3 14  1  0  0  0
  4 11  1  0  0  0
  4 18  1  0  0  0
  6  7  1  0  0  0
  6 19  1  0  0  0
  7  8  1  0  0  0
  7 20  1  0  0  0
  7 21  1  0  0  0
  8  9  1  0  0  0
  8 16  1  0  0  0
  8 22  1  0  0  0
  9 10  1  0  0  0
 10 11  1  0  0  0
 10 15  1  0  0  0
 10 23  1  0  0  0
 12 24  1  0  0  0
 15 16  1  0  0  0
 15 25  1  0  0  0
 15 26  1  0  0  0
 16 17  1  0  0  0
 16 27  1  0  0  0
 17 28  1  0  0  0
M  END
$$$$
