IFP
  CCTOOLS-0919241032

 16 16  0  0  0  0  0  0  0  0999 V2000
   -1.3790    0.0040    0.0770 N   0  0  0  0  0
   -0.1370   -0.0000   -0.3900 C   0  0  0  0  0
    0.0510   -0.0000   -1.8850 C   0  0  0  0  0
    0.9310    0.0000    0.3570 N   0  0  0  0  0
    0.8440   -0.0000    1.7060 C   0  0  0  0  0
    1.9190    0.0000    2.4590 N   0  0  0  0  0
   -0.5180   -0.0010    2.3050 C   0  0  0  0  0
   -1.6470   -0.0010    1.3620 C   0  0  0  0  0
   -0.7090   -0.0000    3.6480 C   0  0  0  0  0
   -0.5440   -1.1420   -2.4300 F   0  0  0  0  0
    1.4180    0.0000   -2.1820 F   0  0  0  0  0
   -0.5450    1.1410   -2.4300 F   0  0  0  0  0
    2.7980    0.0010    2.0490 H   0  0  0  0  0
   -2.6670   -0.0020    1.7170 H   0  0  0  0  0
   -1.7110   -0.0010    4.0510 H   0  0  0  0  0
    0.1410    0.0000    4.3140 H   0  0  0  0  0
  1  2  1  0  0  0
  1  8  2  0  0  0
  2  3  1  0  0  0
  2  4  2  0  0  0
  3 10  1  0  0  0
  3 11  1  0  0  0
  3 12  1  0  0  0
  4  5  1  0  0  0
  5  6  2  0  0  0
  5  7  1  0  0  0
  6 13  1  0  0  0
  7  8  1  0  0  0
  7  9  2  0  0  0
  8 14  1  0  0  0
  9 15  1  0  0  0
  9 16  1  0  0  0
M  END
$$$$
