IGP
  CCTOOLS-0919241033

 33 34  0  0  1  0  0  0  0  0999 V2000
   -0.2290   -0.2540    1.8150 C   0  0  0  0  0
    0.3240    0.0830    4.1700 P   0  0  0  0  0
    0.8770    1.1630    5.2270 O   0  0  0  0  0
   -1.1530   -0.3850    4.6040 O   0  0  0  0  0
    1.2260   -1.0890    4.1440 O   0  0  0  0  0
    0.2660    0.7480    2.7040 O   0  0  0  0  0
   -0.3090    0.3150    0.3970 C   0  0  0  0  0
    0.9920    0.7240   -0.0240 O   0  0  0  0  0
   -0.8400   -0.7580   -0.5540 C   0  0  0  0  0
   -2.1420   -1.1680   -0.1310 O   0  0  0  0  0
   -0.9180   -0.1970   -1.9500 C   0  0  0  0  0
    0.1390   -0.2280   -2.9630 C   0  0  0  0  0
   -0.3910    0.4080   -4.0990 C   0  0  0  0  0
    1.4370   -0.7410   -2.9940 C   0  0  0  0  0
   -1.9690    0.4310   -2.5000 C   0  0  0  0  0
   -1.6730    0.8000   -3.7840 N   0  0  0  0  0
    0.3930    0.5290   -5.2410 C   0  0  0  0  0
    2.1900   -0.6110   -4.1270 C   0  0  0  0  0
    1.6730    0.0210   -5.2490 C   0  0  0  0  0
   -1.2220   -0.5670    2.1380 H   0  0  0  0  0
    0.4420   -1.1130    1.8240 H   0  0  0  0  0
    0.8950    0.7260    6.0900 H   0  0  0  0  0
   -1.7080    0.4060    4.6080 H   0  0  0  0  0
   -0.9810    1.1730    0.3880 H   0  0  0  0  0
    1.5540   -0.0620   -0.0020 H   0  0  0  0  0
   -0.1680   -1.6160   -0.5440 H   0  0  0  0  0
   -2.7040   -0.3810   -0.1540 H   0  0  0  0  0
    1.8450   -1.2350   -2.1250 H   0  0  0  0  0
   -2.9100    0.6180   -2.0030 H   0  0  0  0  0
   -2.2750    1.2680   -4.3820 H   0  0  0  0  0
   -0.0000    1.0190   -6.1200 H   0  0  0  0  0
    3.1960   -1.0040   -4.1490 H   0  0  0  0  0
    2.2810    0.1150   -6.1370 H   0  0  0  0  0
  1  6  1  0  0  0
  1  7  1  0  0  0
  1 20  1  0  0  0
  1 21  1  0  0  0
  2  3  1  0  0  0
  2  4  1  0  0  0
  2  5  2  0  0  0
  2  6  1  0  0  0
  3 22  1  0  0  0
  4 23  1  0  0  0
  7  8  1  0  0  0
  7  9  1  0  0  0
  7 24  1  0  0  0
  8 25  1  0  0  0
  9 10  1  0  0  0
  9 11  1  0  0  0
  9 26  1  0  0  0
 10 27  1  0  0  0
 11 12  1  0  0  0
 11 15  2  0  0  0
 12 13  2  0  0  0
 12 14  1  0  0  0
 13 16  1  0  0  0
 13 17  1  0  0  0
 14 18  2  0  0  0
 14 28  1  0  0  0
 15 16  1  0  0  0
 15 29  1  0  0  0
 16 30  1  0  0  0
 17 19  2  0  0  0
 17 31  1  0  0  0
 18 19  1  0  0  0
 18 32  1  0  0  0
 19 33  1  0  0  0
M  END
$$$$
