IH5
  CCTOOLS-0919241033

 39 40  0  0  0  0  0  0  0  0999 V2000
    6.9740   -0.0100   -0.4230 O   0  0  0  0  0
    5.6680   -0.0060   -0.1150 C   0  0  0  0  0
    5.3190    0.0040    1.0420 O   0  0  0  0  0
    4.6350   -0.0140   -1.2130 C   0  0  0  0  0
    3.2560   -0.0060   -0.6050 C   0  0  0  0  0
    2.6260    1.1950   -0.3370 C   0  0  0  0  0
    1.3610    1.2050    0.2210 C   0  0  0  0  0
    0.7230    0.0070    0.5110 C   0  0  0  0  0
   -0.5210    0.0130    1.0580 O   0  0  0  0  0
   -1.5890    0.0070    0.2170 C   0  0  0  0  0
   -1.3900   -0.0040   -1.1560 C   0  0  0  0  0
   -2.4750   -0.0110   -2.0110 C   0  0  0  0  0
   -3.7630   -0.0050   -1.4970 C   0  0  0  0  0
   -4.8310   -0.0110   -2.3380 O   0  0  0  0  0
   -3.9620    0.0060   -0.1240 C   0  0  0  0  0
   -2.8780    0.0080    0.7310 C   0  0  0  0  0
   -5.3620    0.0120    0.4350 C   0  0  0  0  0
   -5.5690   -1.2300    1.3040 C   0  0  0  0  0
   -5.5670    1.2680    1.2830 C   0  0  0  0  0
    1.3580   -1.1980    0.2400 C   0  0  0  0  0
    2.6210   -1.2010   -0.3220 C   0  0  0  0  0
    0.5640   -2.6990    0.6020 CL  0  0  0  0  0
    0.5720    2.7140    0.5580 CL  0  0  0  0  0
    7.5990   -0.0050    0.3150 H   0  0  0  0  0
    4.7620    0.8710   -1.8370 H   0  0  0  0  0
    4.7590   -0.9090   -1.8220 H   0  0  0  0  0
    3.1240    2.1270   -0.5620 H   0  0  0  0  0
   -0.3870   -0.0090   -1.5560 H   0  0  0  0  0
   -2.3200   -0.0190   -3.0800 H   0  0  0  0  0
   -5.1410   -0.8960   -2.5740 H   0  0  0  0  0
   -3.0330    0.0130    1.8000 H   0  0  0  0  0
   -6.0800    0.0060   -0.3850 H   0  0  0  0  0
   -4.8510   -1.2240    2.1240 H   0  0  0  0  0
   -6.5820   -1.2260    1.7080 H   0  0  0  0  0
   -5.4230   -2.1250    0.6990 H   0  0  0  0  0
   -4.8490    1.2750    2.1030 H   0  0  0  0  0
   -5.4190    2.1530    0.6640 H   0  0  0  0  0
   -6.5800    1.2730    1.6870 H   0  0  0  0  0
    3.1130   -2.1380   -0.5370 H   0  0  0  0  0
  1  2  1  0  0  0
  1 24  1  0  0  0
  2  3  2  0  0  0
  2  4  1  0  0  0
  4  5  1  0  0  0
  4 25  1  0  0  0
  4 26  1  0  0  0
  5  6  2  0  0  0
  5 21  1  0  0  0
  6  7  1  0  0  0
  6 27  1  0  0  0
  7  8  2  0  0  0
  7 23  1  0  0  0
  8  9  1  0  0  0
  8 20  1  0  0  0
  9 10  1  0  0  0
 10 11  2  0  0  0
 10 16  1  0  0  0
 11 12  1  0  0  0
 11 28  1  0  0  0
 12 13  2  0  0  0
 12 29  1  0  0  0
 13 14  1  0  0  0
 13 15  1  0  0  0
 14 30  1  0  0  0
 15 16  2  0  0  0
 15 17  1  0  0  0
 16 31  1  0  0  0
 17 18  1  0  0  0
 17 19  1  0  0  0
 17 32  1  0  0  0
 18 33  1  0  0  0
 18 34  1  0  0  0
 18 35  1  0  0  0
 19 36  1  0  0  0
 19 37  1  0  0  0
 19 38  1  0  0  0
 20 21  2  0  0  0
 20 22  1  0  0  0
 21 39  1  0  0  0
M  END
$$$$
