IHD
  CCTOOLS-0919241033

 50 49  0  0  0  0  0  0  0  0999 V2000
   -1.7860   -5.5400   10.7250 C   0  0  0  0  0
   -0.7490   -5.7110    9.6250 C   0  0  0  0  0
   -1.3430   -5.6820    8.2150 C   0  0  0  0  0
   -0.3490   -5.8990    7.0700 C   0  0  0  0  0
   -0.9820   -5.7740    5.6830 C   0  0  0  0  0
    0.0610   -5.9740    4.5810 C   0  0  0  0  0
   -0.5150   -5.8720    3.1650 C   0  0  0  0  0
    0.4950   -6.0100    2.0210 C   0  0  0  0  0
   -0.1510   -5.9860    0.6330 C   0  0  0  0  0
    0.8610   -6.1130   -0.5100 C   0  0  0  0  0
    0.2820   -6.0330   -1.9260 C   0  0  0  0  0
    1.3440   -6.0790   -3.0260 C   0  0  0  0  0
    0.7030   -6.0280   -4.4160 C   0  0  0  0  0
    1.7620   -6.1070   -5.5170 C   0  0  0  0  0
    1.1750   -6.0760   -6.9310 C   0  0  0  0  0
    2.2370   -6.1860   -8.0250 C   0  0  0  0  0
    1.3280   -6.1220   -9.9640 I   0  0  0  0  0
   -2.6010   -6.2610   10.6130 H   0  0  0  0  0
   -1.3250   -5.7000   11.7050 H   0  0  0  0  0
   -2.2100   -4.5310   10.7210 H   0  0  0  0  0
    0.0260   -4.9450    9.7300 H   0  0  0  0  0
   -0.2480   -6.6760    9.7670 H   0  0  0  0  0
   -1.8390   -4.7160    8.0610 H   0  0  0  0  0
   -2.1300   -6.4440    8.1530 H   0  0  0  0  0
    0.1350   -6.8770    7.1730 H   0  0  0  0  0
    0.4480   -5.1500    7.1670 H   0  0  0  0  0
   -1.7750   -6.5200    5.5740 H   0  0  0  0  0
   -1.4450   -4.7850    5.5780 H   0  0  0  0  0
    0.8440   -5.2110    4.6830 H   0  0  0  0  0
    0.5580   -6.9420    4.7130 H   0  0  0  0  0
   -1.2850   -6.6440    3.0400 H   0  0  0  0  0
   -1.0290   -4.9080    3.0700 H   0  0  0  0  0
    1.2470   -5.2180    2.1030 H   0  0  0  0  0
    1.0300   -6.9580    2.1520 H   0  0  0  0  0
   -0.8600   -6.8190    0.5530 H   0  0  0  0  0
   -0.7360   -5.0700    0.5020 H   0  0  0  0  0
    1.3920   -7.0670   -0.3980 H   0  0  0  0  0
    1.6180   -5.3260   -0.4020 H   0  0  0  0  0
   -0.4470   -6.8370   -2.0790 H   0  0  0  0  0
   -0.2780   -5.0930   -2.0100 H   0  0  0  0  0
    2.0340   -5.2350   -2.9070 H   0  0  0  0  0
    1.9360   -6.9970   -2.9410 H   0  0  0  0  0
    0.1300   -5.0980   -4.5220 H   0  0  0  0  0
   -0.0040   -6.8590   -4.5130 H   0  0  0  0  0
    2.4510   -5.2590   -5.4140 H   0  0  0  0  0
    2.3590   -7.0170   -5.3890 H   0  0  0  0  0
    0.6260   -5.1330   -7.0470 H   0  0  0  0  0
    0.4370   -6.8820   -7.0380 H   0  0  0  0  0
    2.7940   -7.1240   -7.9310 H   0  0  0  0  0
    2.9560   -5.3650   -7.9360 H   0  0  0  0  0
  1  2  1  0  0  0
  1 18  1  0  0  0
  1 19  1  0  0  0
  1 20  1  0  0  0
  2  3  1  0  0  0
  2 21  1  0  0  0
  2 22  1  0  0  0
  3  4  1  0  0  0
  3 23  1  0  0  0
  3 24  1  0  0  0
  4  5  1  0  0  0
  4 25  1  0  0  0
  4 26  1  0  0  0
  5  6  1  0  0  0
  5 27  1  0  0  0
  5 28  1  0  0  0
  6  7  1  0  0  0
  6 29  1  0  0  0
  6 30  1  0  0  0
  7  8  1  0  0  0
  7 31  1  0  0  0
  7 32  1  0  0  0
  8  9  1  0  0  0
  8 33  1  0  0  0
  8 34  1  0  0  0
  9 10  1  0  0  0
  9 35  1  0  0  0
  9 36  1  0  0  0
 10 11  1  0  0  0
 10 37  1  0  0  0
 10 38  1  0  0  0
 11 12  1  0  0  0
 11 39  1  0  0  0
 11 40  1  0  0  0
 12 13  1  0  0  0
 12 41  1  0  0  0
 12 42  1  0  0  0
 13 14  1  0  0  0
 13 43  1  0  0  0
 13 44  1  0  0  0
 14 15  1  0  0  0
 14 45  1  0  0  0
 14 46  1  0  0  0
 15 16  1  0  0  0
 15 47  1  0  0  0
 15 48  1  0  0  0
 16 17  1  0  0  0
 16 49  1  0  0  0
 16 50  1  0  0  0
M  END
$$$$
