ILB
  CCTOOLS-0919241033

 44 46  0  0  0  0  0  0  0  0999 V2000
    4.5140   -1.0030   -1.9060 C   0  0  0  0  0
    5.3350   -0.6380   -0.8550 C   0  0  0  0  0
    4.8060    0.0140    0.2500 C   0  0  0  0  0
    3.1640   -0.7210   -1.8620 C   0  0  0  0  0
    0.7330    1.4570   -0.1930 C   0  0  0  0  0
   -0.6170    1.7410   -0.1510 C   0  0  0  0  0
   -1.5400    0.8060   -0.6120 C   0  0  0  0  0
   -1.1020   -0.4110   -1.1240 C   0  0  0  0  0
    0.2480   -0.6950   -1.1710 C   0  0  0  0  0
   -3.7810    0.1480   -0.1630 C   0  0  0  0  0
   -6.1340   -0.3430    0.5090 C   0  0  0  0  0
   -7.4850    0.3320    0.5460 C   0  0  0  0  0
   -7.1770    1.8420    0.4130 C   0  0  0  0  0
   -5.8220    1.8240   -0.3310 C   0  0  0  0  0
    6.9360   -0.0560    0.9350 C   0  0  0  0  0
    3.4530    0.3060    0.3000 C   0  0  0  0  0
    2.6240   -0.0660   -0.7560 C   0  0  0  0  0
    1.1730    0.2380   -0.7060 C   0  0  0  0  0
   -1.0440    2.9230    0.3460 F   0  0  0  0  0
   -2.9080    1.0930   -0.5650 N   0  0  0  0  0
   -1.9990   -1.3150   -1.5760 F   0  0  0  0  0
   -5.2060    0.4890    0.0160 C   0  0  0  0  0
   -3.3950   -0.9840    0.0530 O   0  0  0  0  0
   -5.8730   -1.7270    0.9470 C   0  0  0  0  0
   -5.3640   -1.9610    2.1730 O   0  0  0  0  0
   -6.1180   -2.6560    0.2040 O   0  0  0  0  0
    5.6160    0.3710    1.2810 O   0  0  0  0  0
    7.3340    0.5730   -0.2500 F   0  0  0  0  0
    7.8210    0.2860    1.9640 F   0  0  0  0  0
    6.9450   -1.4430    0.7530 F   0  0  0  0  0
    4.9300   -1.5110   -2.7630 H   0  0  0  0  0
    6.3910   -0.8610   -0.8940 H   0  0  0  0  0
    2.5250   -1.0080   -2.6840 H   0  0  0  0  0
    1.4490    2.1810    0.1690 H   0  0  0  0  0
    0.5880   -1.6410   -1.5690 H   0  0  0  0  0
   -8.1060   -0.0030   -0.2850 H   0  0  0  0  0
   -7.9800    0.1290    1.4960 H   0  0  0  0  0
   -7.0770    2.3110    1.3920 H   0  0  0  0  0
   -7.9410    2.3430   -0.1820 H   0  0  0  0  0
   -5.1870    2.6370    0.0190 H   0  0  0  0  0
   -5.9800    1.9010   -1.4070 H   0  0  0  0  0
    3.0400    0.8140    1.1590 H   0  0  0  0  0
   -3.2280    1.9720   -0.8210 H   0  0  0  0  0
   -5.1940   -2.8680    2.4610 H   0  0  0  0  0
  1  2  2  0  0  0
  1  4  1  0  0  0
  1 31  1  0  0  0
  2  3  1  0  0  0
  2 32  1  0  0  0
  3 16  2  0  0  0
  3 27  1  0  0  0
  4 17  2  0  0  0
  4 33  1  0  0  0
  5  6  2  0  0  0
  5 18  1  0  0  0
  5 34  1  0  0  0
  6  7  1  0  0  0
  6 19  1  0  0  0
  7  8  2  0  0  0
  7 20  1  0  0  0
  8  9  1  0  0  0
  8 21  1  0  0  0
  9 18  2  0  0  0
  9 35  1  0  0  0
 10 20  1  0  0  0
 10 22  1  0  0  0
 10 23  2  0  0  0
 11 12  1  0  0  0
 11 22  2  0  0  0
 11 24  1  0  0  0
 12 13  1  0  0  0
 12 36  1  0  0  0
 12 37  1  0  0  0
 13 14  1  0  0  0
 13 38  1  0  0  0
 13 39  1  0  0  0
 14 22  1  0  0  0
 14 40  1  0  0  0
 14 41  1  0  0  0
 15 27  1  0  0  0
 15 28  1  0  0  0
 15 29  1  0  0  0
 15 30  1  0  0  0
 16 17  1  0  0  0
 16 42  1  0  0  0
 17 18  1  0  0  0
 20 43  1  0  0  0
 24 25  1  0  0  0
 24 26  2  0  0  0
 25 44  1  0  0  0
M  END
$$$$
