ILC
  CCTOOLS-0919241033

 40 42  0  0  0  0  0  0  0  0999 V2000
    6.6470   -0.9040   -0.5650 C   0  0  0  0  0
    6.1720   -0.1380    0.4910 C   0  0  0  0  0
    4.8280    0.1880    0.5600 C   0  0  0  0  0
    3.9580   -0.2440   -0.4390 C   0  0  0  0  0
    2.5180    0.1070   -0.3740 C   0  0  0  0  0
    4.4430   -1.0130   -1.4950 C   0  0  0  0  0
    5.7840   -1.3390   -1.5530 C   0  0  0  0  0
    1.5530   -0.8360   -0.7250 C   0  0  0  0  0
    0.2150   -0.5090   -0.6650 C   0  0  0  0  0
   -0.1730    0.7610   -0.2560 C   0  0  0  0  0
    2.1280    1.3790    0.0420 C   0  0  0  0  0
   -2.4530    0.1210   -0.0370 C   0  0  0  0  0
   -3.8900    0.4520   -0.1040 C   0  0  0  0  0
   -4.3320    1.7220   -0.4340 C   0  0  0  0  0
   -4.8800   -0.5050    0.1580 C   0  0  0  0  0
    7.0250    0.2870    1.4600 O   0  0  0  0  0
    8.3200   -0.2080    1.1160 C   0  0  0  0  0
   -1.5310    1.0910   -0.1960 N   0  0  0  0  0
    0.7880    1.7050    0.0950 C   0  0  0  0  0
    0.4080    2.9390    0.4930 F   0  0  0  0  0
   -2.1020   -1.0260    0.1610 O   0  0  0  0  0
   -5.6630    1.9680   -0.4810 C   0  0  0  0  0
   -6.3740    0.4430   -0.0670 S   0  0  0  0  0
   -4.7270   -1.9170    0.5270 C   0  0  0  0  0
   -3.6230   -2.4250    0.5420 O   0  0  0  0  0
   -5.8110   -2.6500    0.8510 O   0  0  0  0  0
    7.6950   -1.1610   -0.6150 H   0  0  0  0  0
    4.4560    0.7840    1.3810 H   0  0  0  0  0
    3.7710   -1.3530   -2.2690 H   0  0  0  0  0
    6.1580   -1.9340   -2.3720 H   0  0  0  0  0
    1.8540   -1.8230   -1.0440 H   0  0  0  0  0
   -0.5320   -1.2400   -0.9370 H   0  0  0  0  0
    2.8740    2.1110    0.3140 H   0  0  0  0  0
   -3.6230    2.5080   -0.6520 H   0  0  0  0  0
    9.0420    0.1090    1.8690 H   0  0  0  0  0
    8.2940   -1.2970    1.0750 H   0  0  0  0  0
    8.6130    0.1850    0.1430 H   0  0  0  0  0
   -1.8090    2.0170   -0.2680 H   0  0  0  0  0
   -6.1630    2.8960   -0.7190 H   0  0  0  0  0
   -5.7110   -3.5810    1.0940 H   0  0  0  0  0
  1  2  2  0  0  0
  1  7  1  0  0  0
  1 27  1  0  0  0
  2  3  1  0  0  0
  2 16  1  0  0  0
  3  4  2  0  0  0
  3 28  1  0  0  0
  4  5  1  0  0  0
  4  6  1  0  0  0
  5  8  2  0  0  0
  5 11  1  0  0  0
  6  7  2  0  0  0
  6 29  1  0  0  0
  7 30  1  0  0  0
  8  9  1  0  0  0
  8 31  1  0  0  0
  9 10  2  0  0  0
  9 32  1  0  0  0
 10 18  1  0  0  0
 10 19  1  0  0  0
 11 19  2  0  0  0
 11 33  1  0  0  0
 12 13  1  0  0  0
 12 18  1  0  0  0
 12 21  2  0  0  0
 13 14  1  0  0  0
 13 15  2  0  0  0
 14 22  2  0  0  0
 14 34  1  0  0  0
 15 23  1  0  0  0
 15 24  1  0  0  0
 16 17  1  0  0  0
 17 35  1  0  0  0
 17 36  1  0  0  0
 17 37  1  0  0  0
 18 38  1  0  0  0
 19 20  1  0  0  0
 22 23  1  0  0  0
 22 39  1  0  0  0
 24 25  2  0  0  0
 24 26  1  0  0  0
 26 40  1  0  0  0
M  END
$$$$
