ILF
  CCTOOLS-0919241033

 40 42  0  0  0  0  0  0  0  0999 V2000
    5.7150   -0.8550    0.0650 C   0  0  0  0  0
    4.9750    0.3190    0.0360 C   0  0  0  0  0
    3.5940    0.2660   -0.0500 C   0  0  0  0  0
    2.9490   -0.9680   -0.0940 C   0  0  0  0  0
    1.4700   -1.0320   -0.1800 C   0  0  0  0  0
    3.6990   -2.1420   -0.0630 C   0  0  0  0  0
    5.0760   -2.0800    0.0160 C   0  0  0  0  0
    0.7700   -1.9940    0.5470 C   0  0  0  0  0
   -0.6070   -2.0520    0.4670 C   0  0  0  0  0
   -1.2960   -1.1520   -0.3390 C   0  0  0  0  0
    0.7780   -0.1300   -0.9870 C   0  0  0  0  0
   -3.4350   -0.1410   -0.0780 C   0  0  0  0  0
   -4.9060   -0.2430   -0.0440 C   0  0  0  0  0
   -5.5580   -1.4490   -0.2400 C   0  0  0  0  0
   -5.7180    0.8730    0.1990 C   0  0  0  0  0
    5.6070    1.5210    0.0850 O   0  0  0  0  0
    7.0080    1.2490    0.1620 C   0  0  0  0  0
    7.4050    0.5250   -0.9680 F   0  0  0  0  0
    7.7150    2.4550    0.2150 F   0  0  0  0  0
    7.2750    0.5000    1.3130 F   0  0  0  0  0
   -1.2860   -2.9840    1.1710 F   0  0  0  0  0
   -2.6920   -1.2120   -0.4210 N   0  0  0  0  0
   -0.5990   -0.1940   -1.0690 C   0  0  0  0  0
   -1.2700    0.6790   -1.8520 F   0  0  0  0  0
   -2.8910    0.9100    0.2030 O   0  0  0  0  0
   -6.9120   -1.4840   -0.1990 C   0  0  0  0  0
   -7.3520    0.1610    0.1240 S   0  0  0  0  0
   -5.3260    2.2650    0.4460 C   0  0  0  0  0
   -4.1510    2.5540    0.5640 O   0  0  0  0  0
   -6.2690    3.2250    0.5410 O   0  0  0  0  0
    6.7920   -0.8110    0.1280 H   0  0  0  0  0
    3.0170    1.1790   -0.0730 H   0  0  0  0  0
    3.2040   -3.1010   -0.1010 H   0  0  0  0  0
    5.6560   -2.9910    0.0390 H   0  0  0  0  0
    1.3050   -2.6930    1.1730 H   0  0  0  0  0
    1.3190    0.6160   -1.5500 H   0  0  0  0  0
   -4.9950   -2.3510   -0.4290 H   0  0  0  0  0
   -3.1260   -2.0260   -0.7230 H   0  0  0  0  0
   -7.5630   -2.3350   -0.3340 H   0  0  0  0  0
    0.0000    0.0000    0.0000 H   0  0  0  0  0
  1  2  2  0  0  0
  1  7  1  0  0  0
  1 31  1  0  0  0
  2  3  1  0  0  0
  2 16  1  0  0  0
  3  4  2  0  0  0
  3 32  1  0  0  0
  4  5  1  0  0  0
  4  6  1  0  0  0
  5  8  2  0  0  0
  5 11  1  0  0  0
  6  7  2  0  0  0
  6 33  1  0  0  0
  7 34  1  0  0  0
  8  9  1  0  0  0
  8 35  1  0  0  0
  9 10  2  0  0  0
  9 21  1  0  0  0
 10 22  1  0  0  0
 10 23  1  0  0  0
 11 23  2  0  0  0
 11 36  1  0  0  0
 12 13  1  0  0  0
 12 22  1  0  0  0
 12 25  2  0  0  0
 13 14  1  0  0  0
 13 15  2  0  0  0
 14 26  2  0  0  0
 14 37  1  0  0  0
 15 27  1  0  0  0
 15 28  1  0  0  0
 16 17  1  0  0  0
 17 18  1  0  0  0
 17 19  1  0  0  0
 17 20  1  0  0  0
 22 38  1  0  0  0
 23 24  1  0  0  0
 26 27  1  0  0  0
 26 39  1  0  0  0
 28 29  1  0  0  0
 28 30  2  0  0  0
 29 40  1  0  0  0
M  END
$$$$
