ILH
  CCTOOLS-0919241033

 42 44  0  0  0  0  0  0  0  0999 V2000
   -4.8480   -2.4370    0.5050 O   0  0  0  0  0
   -5.9470   -1.9780    0.7490 C   0  0  0  0  0
   -6.9230   -2.7800    1.2210 O   0  0  0  0  0
   -6.2110   -0.5530    0.5320 C   0  0  0  0  0
   -5.3060    0.3970    0.1700 C   0  0  0  0  0
   -5.9650    1.7000    0.0540 C   0  0  0  0  0
   -7.2620    1.6000    0.3330 C   0  0  0  0  0
   -7.5440    0.1510    0.6590 C   0  0  0  0  0
   -3.8640    0.1500   -0.0710 C   0  0  0  0  0
   -3.4310   -0.9850   -0.0520 O   0  0  0  0  0
   -3.0330    1.1840   -0.3100 N   0  0  0  0  0
   -1.6550    0.9670   -0.4090 C   0  0  0  0  0
   -1.1750   -0.1300   -1.1180 C   0  0  0  0  0
   -2.0400   -0.9820   -1.7100 F   0  0  0  0  0
    0.1870   -0.3470   -1.2170 C   0  0  0  0  0
    0.6530   -1.4120   -1.9060 F   0  0  0  0  0
    1.0800    0.5340   -0.6050 C   0  0  0  0  0
    0.5950    1.6340    0.1050 C   0  0  0  0  0
    1.4560    2.4890    0.6990 F   0  0  0  0  0
   -0.7680    1.8500    0.1970 C   0  0  0  0  0
   -1.2370    2.9140    0.8840 F   0  0  0  0  0
    2.5410    0.3030   -0.7100 C   0  0  0  0  0
    3.2860    0.0160    0.4310 C   0  0  0  0  0
    4.6490   -0.2050    0.3260 C   0  0  0  0  0
    5.3790   -0.4920    1.4370 O   0  0  0  0  0
    6.7330   -0.6570    1.0100 C   0  0  0  0  0
    7.1810    0.5260    0.4120 F   0  0  0  0  0
    7.5370   -0.9550    2.1150 F   0  0  0  0  0
    6.8050   -1.7040    0.0850 F   0  0  0  0  0
    5.2720   -0.1280   -0.9120 C   0  0  0  0  0
    4.5340    0.1630   -2.0440 C   0  0  0  0  0
    3.1740    0.3780   -1.9500 C   0  0  0  0  0
    0.0000    0.0000    0.0000 H   0  0  0  0  0
   -5.4660    2.6170   -0.2200 H   0  0  0  0  0
   -7.9810    2.4050    0.3240 H   0  0  0  0  0
   -8.2640   -0.2620   -0.0480 H   0  0  0  0  0
   -7.9180    0.0590    1.6780 H   0  0  0  0  0
   -3.3920    2.0800   -0.4130 H   0  0  0  0  0
    2.8000   -0.0440    1.3940 H   0  0  0  0  0
    6.3360   -0.2960   -0.9910 H   0  0  0  0  0
    5.0220    0.2210   -3.0060 H   0  0  0  0  0
    2.6000    0.6050   -2.8360 H   0  0  0  0  0
  1  2  1  0  0  0
  1 33  1  0  0  0
  2  3  2  0  0  0
  2  4  1  0  0  0
  4  5  2  0  0  0
  4  8  1  0  0  0
  5  6  1  0  0  0
  5  9  1  0  0  0
  6  7  2  0  0  0
  6 34  1  0  0  0
  7  8  1  0  0  0
  7 35  1  0  0  0
  8 36  1  0  0  0
  8 37  1  0  0  0
  9 10  2  0  0  0
  9 11  1  0  0  0
 11 12  1  0  0  0
 11 38  1  0  0  0
 12 13  1  0  0  0
 12 20  2  0  0  0
 13 14  1  0  0  0
 13 15  2  0  0  0
 15 16  1  0  0  0
 15 17  1  0  0  0
 17 18  2  0  0  0
 17 22  1  0  0  0
 18 19  1  0  0  0
 18 20  1  0  0  0
 20 21  1  0  0  0
 22 23  2  0  0  0
 22 32  1  0  0  0
 23 24  1  0  0  0
 23 39  1  0  0  0
 24 25  1  0  0  0
 24 30  2  0  0  0
 25 26  1  0  0  0
 26 27  1  0  0  0
 26 28  1  0  0  0
 26 29  1  0  0  0
 30 31  1  0  0  0
 30 40  1  0  0  0
 31 32  2  0  0  0
 31 41  1  0  0  0
 32 42  1  0  0  0
M  END
$$$$
