IMI
  CCTOOLS-0919241033

 33 34  0  0  1  0  0  0  0  0999 V2000
    0.2860   -0.1850    5.0640 C   0  0  0  0  0
    1.4760   -0.0180    4.9330 O   0  0  0  0  0
   -0.2200   -0.4850    6.2700 O   0  0  0  0  0
   -0.6270   -0.0550    3.8740 C   0  0  0  0  0
    0.1960    0.2890    2.6320 C   0  0  0  0  0
   -0.7310    0.4200    1.4230 C   0  0  0  0  0
    0.0930    0.7650    0.1820 C   0  0  0  0  0
   -0.8350    0.8970   -1.0260 C   0  0  0  0  0
   -1.6370   -0.7160   -1.4240 S   0  0  0  0  0
   -1.8040   -0.4540   -3.2430 C   0  0  0  0  0
   -0.5660    0.4170   -3.5410 C   0  0  0  0  0
    0.5430   -0.4490   -3.9650 N   0  0  0  0  0
    1.6020   -0.2570   -3.1200 C   0  0  0  0  0
    2.7390   -0.8840   -3.2350 N   0  0  0  0  0
    1.3390    0.6620   -2.1420 N   0  0  0  0  0
   -0.0310    1.1650   -2.3170 C   0  0  0  0  0
    0.3660   -0.5690    7.0350 H   0  0  0  0  0
   -1.1500   -0.9990    3.7120 H   0  0  0  0  0
   -1.3550    0.7340    4.0580 H   0  0  0  0  0
    0.7190    1.2320    2.7940 H   0  0  0  0  0
    0.9240   -0.5010    2.4480 H   0  0  0  0  0
   -1.2530   -0.5220    1.2620 H   0  0  0  0  0
   -1.4580    1.2110    1.6080 H   0  0  0  0  0
    0.6150    1.7090    0.3430 H   0  0  0  0  0
    0.8200   -0.0240   -0.0020 H   0  0  0  0  0
   -1.5810    1.6750   -0.8610 H   0  0  0  0  0
   -1.7550   -1.4010   -3.7810 H   0  0  0  0  0
   -2.7250    0.0790   -3.4790 H   0  0  0  0  0
   -0.7970    1.1360   -4.3270 H   0  0  0  0  0
    0.5260   -1.0570   -4.7200 H   0  0  0  0  0
    2.8680   -1.5270   -3.9500 H   0  0  0  0  0
    1.9570    0.9380   -1.4470 H   0  0  0  0  0
   -0.0110    2.2370   -2.5130 H   0  0  0  0  0
  1  2  2  0  0  0
  1  3  1  0  0  0
  1  4  1  0  0  0
  3 17  1  0  0  0
  4  5  1  0  0  0
  4 18  1  0  0  0
  4 19  1  0  0  0
  5  6  1  0  0  0
  5 20  1  0  0  0
  5 21  1  0  0  0
  6  7  1  0  0  0
  6 22  1  0  0  0
  6 23  1  0  0  0
  7  8  1  0  0  0
  7 24  1  0  0  0
  7 25  1  0  0  0
  8  9  1  0  0  0
  8 16  1  0  0  0
  8 26  1  0  0  0
  9 10  1  0  0  0
 10 11  1  0  0  0
 10 27  1  0  0  0
 10 28  1  0  0  0
 11 12  1  0  0  0
 11 16  1  0  0  0
 11 29  1  0  0  0
 12 13  1  0  0  0
 12 30  1  0  0  0
 13 14  2  0  0  0
 13 15  1  0  0  0
 14 31  1  0  0  0
 15 16  1  0  0  0
 15 32  1  0  0  0
 16 33  1  0  0  0
M  END
$$$$
