IMN
  CCTOOLS-0919241033

 41 43  0  0  0  0  0  0  0  0999 V2000
    0.7970    0.7410    1.0600 C   0  0  0  0  0
    0.1490    0.3050    2.2290 C   0  0  0  0  0
    0.8840   -0.2920    3.2530 C   0  0  0  0  0
    2.2510   -0.4410    3.1140 C   0  0  0  0  0
    2.8890   -0.0090    1.9560 C   0  0  0  0  0
    2.1710    0.5770    0.9370 C   0  0  0  0  0
    4.3350   -1.0360    3.6770 C   0  0  0  0  0
   -1.2720    0.6170    2.0480 C   0  0  0  0  0
   -1.4010    1.1940    0.8450 C   0  0  0  0  0
    0.0510    1.8070   -0.9850 C   0  0  0  0  0
    0.0940    0.9310   -2.1730 C   0  0  0  0  0
    0.4330    1.4580   -3.4210 C   0  0  0  0  0
    0.4730    0.6340   -4.5260 C   0  0  0  0  0
    0.1770   -0.7120   -4.4000 C   0  0  0  0  0
   -0.1590   -1.2410   -3.1650 C   0  0  0  0  0
   -0.1960   -0.4290   -2.0510 C   0  0  0  0  0
   -2.6990    1.6770    0.2500 C   0  0  0  0  0
   -2.3810    0.3410    3.0300 C   0  0  0  0  0
   -2.9560   -1.0260    2.7670 C   0  0  0  0  0
   -0.1730    1.2790    0.2330 N   0  0  0  0  0
    2.9740   -1.0180    4.1110 O   0  0  0  0  0
    0.2170    3.0050   -1.1070 O   0  0  0  0  0
   -2.5120   -1.7070    1.8740 O   0  0  0  0  0
   -3.9630   -1.4880    3.5260 O   0  0  0  0  0
    0.2290   -1.7430   -5.7960 CL  0  0  0  0  0
    0.3890   -0.6330    4.1500 H   0  0  0  0  0
    3.9570   -0.1340    1.8550 H   0  0  0  0  0
    2.6760    0.9100    0.0420 H   0  0  0  0  0
    4.9570   -1.4920    4.4470 H   0  0  0  0  0
    4.4150   -1.6140    2.7560 H   0  0  0  0  0
    4.6720   -0.0150    3.4950 H   0  0  0  0  0
    0.6640    2.5080   -3.5200 H   0  0  0  0  0
    0.7340    1.0410   -5.4920 H   0  0  0  0  0
   -0.3890   -2.2920   -3.0730 H   0  0  0  0  0
   -0.4590   -0.8420   -1.0890 H   0  0  0  0  0
   -3.1600    0.8700   -0.3190 H   0  0  0  0  0
   -3.3710    1.9870    1.0500 H   0  0  0  0  0
   -2.5040    2.5230   -0.4080 H   0  0  0  0  0
   -1.9850    0.3800    4.0450 H   0  0  0  0  0
   -3.1630    1.0920    2.9160 H   0  0  0  0  0
   -4.3320   -2.3650    3.3570 H   0  0  0  0  0
  1  2  2  0  0  0
  1  6  1  0  0  0
  1 20  1  0  0  0
  2  3  1  0  0  0
  2  8  1  0  0  0
  3  4  2  0  0  0
  3 26  1  0  0  0
  4  5  1  0  0  0
  4 21  1  0  0  0
  5  6  2  0  0  0
  5 27  1  0  0  0
  6 28  1  0  0  0
  7 21  1  0  0  0
  7 29  1  0  0  0
  7 30  1  0  0  0
  7 31  1  0  0  0
  8  9  2  0  0  0
  8 18  1  0  0  0
  9 17  1  0  0  0
  9 20  1  0  0  0
 10 11  1  0  0  0
 10 20  1  0  0  0
 10 22  2  0  0  0
 11 12  2  0  0  0
 11 16  1  0  0  0
 12 13  1  0  0  0
 12 32  1  0  0  0
 13 14  2  0  0  0
 13 33  1  0  0  0
 14 15  1  0  0  0
 14 25  1  0  0  0
 15 16  2  0  0  0
 15 34  1  0  0  0
 16 35  1  0  0  0
 17 36  1  0  0  0
 17 37  1  0  0  0
 17 38  1  0  0  0
 18 19  1  0  0  0
 18 39  1  0  0  0
 18 40  1  0  0  0
 19 23  2  0  0  0
 19 24  1  0  0  0
 24 41  1  0  0  0
M  END
$$$$
