IMP
  CCTOOLS-1004241120

 36 38  0  0  1  0  0  0  0  0999 V2000
   -4.8030   -0.9630    0.1080 P   0  0  0  0  0
   -5.8350    0.0200   -0.2910 O   0  0  0  0  0
   -5.3320   -1.8150    1.3670 O   0  0  0  0  0
   -4.5040   -1.9560   -1.1240 O   0  0  0  0  0
   -3.4510   -0.1890    0.5130 O   0  0  0  0  0
   -2.7930    0.7350   -0.3560 C   0  0  0  0  0
   -1.5450    1.2870    0.3360 C   0  0  0  0  0
   -0.5820    0.2350    0.5190 O   0  0  0  0  0
   -0.8870    2.3630   -0.5490 C   0  0  0  0  0
   -0.8450    3.6160    0.1350 O   0  0  0  0  0
    0.5460    1.8290   -0.7930 C   0  0  0  0  0
    1.5040    2.8870   -0.7150 O   0  0  0  0  0
    0.7250    0.8330    0.3810 C   0  0  0  0  0
    1.7250   -0.1840    0.0470 N   0  0  0  0  0
    1.4830   -1.3860   -0.5500 C   0  0  0  0  0
    2.6010   -2.0370   -0.6970 N   0  0  0  0  0
    3.6200   -1.2940   -0.2050 C   0  0  0  0  0
    5.0200   -1.4840   -0.0970 C   0  0  0  0  0
    5.5470   -2.5070   -0.5010 O   0  0  0  0  0
    5.7560   -0.5010    0.4680 N   0  0  0  0  0
    5.1590    0.6330    0.9140 C   0  0  0  0  0
    3.8730    0.8230    0.8220 N   0  0  0  0  0
    3.0710   -0.0990    0.2700 C   0  0  0  0  0
   -6.1460   -2.3090    1.1950 H   0  0  0  0  0
   -3.8360   -2.6290   -0.9330 H   0  0  0  0  0
   -2.5030    0.2250   -1.2750 H   0  0  0  0  0
   -3.4690    1.5560   -0.5950 H   0  0  0  0  0
   -1.8160    1.7130    1.3020 H   0  0  0  0  0
   -1.4250    2.4620   -1.4920 H   0  0  0  0  0
   -0.4400    4.3300   -0.3760 H   0  0  0  0  0
    0.6120    1.3160   -1.7520 H   0  0  0  0  0
    1.3760    3.5820   -1.3740 H   0  0  0  0  0
    1.0040    1.3610    1.2930 H   0  0  0  0  0
    0.5110   -1.7440   -0.8540 H   0  0  0  0  0
    6.7160   -0.6060    0.5540 H   0  0  0  0  0
    5.7700    1.4030    1.3620 H   0  0  0  0  0
  1  2  2  0  0  0
  1  3  1  0  0  0
  1  4  1  0  0  0
  1  5  1  0  0  0
  3 24  1  0  0  0
  4 25  1  0  0  0
  5  6  1  0  0  0
  6  7  1  0  0  0
  6 26  1  0  0  0
  6 27  1  0  0  0
  7  8  1  0  0  0
  7  9  1  0  0  0
  7 28  1  0  0  0
  8 13  1  0  0  0
  9 10  1  0  0  0
  9 11  1  0  0  0
  9 29  1  0  0  0
 10 30  1  0  0  0
 11 12  1  0  0  0
 11 13  1  0  0  0
 11 31  1  0  0  0
 12 32  1  0  0  0
 13 14  1  0  0  0
 13 33  1  0  0  0
 14 15  1  0  0  0
 14 23  1  0  0  0
 15 16  2  0  0  0
 15 34  1  0  0  0
 16 17  1  0  0  0
 17 18  1  0  0  0
 17 23  2  0  0  0
 18 19  2  0  0  0
 18 20  1  0  0  0
 20 21  1  0  0  0
 20 35  1  0  0  0
 21 22  2  0  0  0
 21 36  1  0  0  0
 22 23  1  0  0  0
M  END
$$$$
