IMT
  CCTOOLS-0919241033

 17 17  0  0  0  0  0  0  0  0999 V2000
    2.7470    0.3110   -0.9310 N   0  0  0  0  0
    1.9500   -0.7740   -0.8260 C   0  0  0  0  0
    2.3540   -2.0370   -1.1810 N   0  0  0  0  0
    0.6550   -0.7780   -0.3640 C   0  0  0  0  0
    1.3130   -2.8020   -0.9370 C   0  0  0  0  0
    0.2600   -2.0840   -0.4420 N   0  0  0  0  0
   -1.0360   -2.5980   -0.0680 C   0  0  0  0  0
    1.3320   -4.2090   -1.1800 C   0  0  0  0  0
    0.3920   -5.0100   -0.9770 O   0  0  0  0  0
    2.5240   -4.6610   -1.6840 O   0  0  0  0  0
    3.5290    0.4810   -0.2820 H   0  0  0  0  0
    2.5560    1.0680   -1.6040 H   0  0  0  0  0
    0.0020    0.0040   -0.0010 H   0  0  0  0  0
   -0.9190   -3.1740    0.8540 H   0  0  0  0  0
   -1.7270   -1.7650    0.0870 H   0  0  0  0  0
   -1.4180   -3.2350   -0.8720 H   0  0  0  0  0
    2.5470   -5.6270   -1.8550 H   0  0  0  0  0
  1  2  1  0  0  0
  1 11  1  0  0  0
  1 12  1  0  0  0
  2  3  1  0  0  0
  2  4  2  0  0  0
  3  5  2  0  0  0
  4  6  1  0  0  0
  4 13  1  0  0  0
  5  6  1  0  0  0
  5  8  1  0  0  0
  6  7  1  0  0  0
  7 14  1  0  0  0
  7 15  1  0  0  0
  7 16  1  0  0  0
  8  9  2  0  0  0
  8 10  1  0  0  0
 10 17  1  0  0  0
M  END
$$$$
