IMX
  CCTOOLS-0919241033

 43 46  0  0  1  0  0  0  0  0999 V2000
    1.6670   -0.8140    0.9350 C   0  0  0  0  0
   -4.3250   -0.3780    0.3630 C   0  0  0  0  0
   -3.7220    0.2780   -0.7280 C   0  0  0  0  0
   -5.7220   -0.4190    0.4630 C   0  0  0  0  0
   -4.5250    0.8780   -1.6940 C   0  0  0  0  0
   -6.4890    0.1770   -0.4970 C   0  0  0  0  0
   -5.8950    0.8260   -1.5750 C   0  0  0  0  0
   -2.3600    0.1650   -0.5740 N   0  0  0  0  0
   -2.1010   -0.5440    0.5830 C   0  0  0  0  0
   -3.2780   -0.8900    1.1670 C   0  0  0  0  0
   -7.8360    0.1370   -0.3990 F   0  0  0  0  0
   -0.7630   -0.8770    1.0970 C   0  0  0  0  0
   -0.6490   -1.5080    2.1300 O   0  0  0  0  0
    0.3350   -0.4830    0.4230 N   0  0  0  0  0
    2.1470    0.2490    1.9460 C   0  0  0  0  0
    2.9190    1.2580    1.1220 C   0  0  0  0  0
    3.2510    0.7060   -0.1000 C   0  0  0  0  0
    2.7260   -0.7110   -0.1830 C   0  0  0  0  0
    3.3000    2.5560    1.4200 C   0  0  0  0  0
    4.0110    3.3000    0.4990 C   0  0  0  0  0
    4.3440    2.7480   -0.7240 C   0  0  0  0  0
    3.9650    1.4540   -1.0230 C   0  0  0  0  0
    3.8570   -1.7110    0.0630 C   0  0  0  0  0
    4.8160   -1.6810   -1.0990 C   0  0  0  0  0
    5.8930   -2.4830   -1.1020 O   0  0  0  0  0
    4.6150   -0.9360   -2.0290 O   0  0  0  0  0
    1.6710   -1.8070    1.3860 H   0  0  0  0  0
   -6.1910   -0.9210    1.2970 H   0  0  0  0  0
   -4.0730    1.3840   -2.5340 H   0  0  0  0  0
   -6.5160    1.2930   -2.3260 H   0  0  0  0  0
   -1.6910    0.5230   -1.1790 H   0  0  0  0  0
   -3.3940   -1.4490    2.0840 H   0  0  0  0  0
    0.2440    0.0210   -0.4010 H   0  0  0  0  0
    1.2930    0.7270    2.4260 H   0  0  0  0  0
    2.7970   -0.2060    2.6930 H   0  0  0  0  0
    2.2680   -0.8880   -1.1560 H   0  0  0  0  0
    3.0400    2.9870    2.3750 H   0  0  0  0  0
    4.3060    4.3120    0.7340 H   0  0  0  0  0
    4.8990    3.3290   -1.4460 H   0  0  0  0  0
    4.2250    1.0240   -1.9780 H   0  0  0  0  0
    4.3860   -1.4440    0.9780 H   0  0  0  0  0
    3.4400   -2.7130    0.1640 H   0  0  0  0  0
    6.4790   -2.4280   -1.8690 H   0  0  0  0  0
  1 14  1  0  0  0
  1 15  1  0  0  0
  1 18  1  0  0  0
  1 27  1  0  0  0
  2  3  2  0  0  0
  2  4  1  0  0  0
  2 10  1  0  0  0
  3  5  1  0  0  0
  3  8  1  0  0  0
  4  6  2  0  0  0
  4 28  1  0  0  0
  5  7  2  0  0  0
  5 29  1  0  0  0
  6  7  1  0  0  0
  6 11  1  0  0  0
  7 30  1  0  0  0
  8  9  1  0  0  0
  8 31  1  0  0  0
  9 10  2  0  0  0
  9 12  1  0  0  0
 10 32  1  0  0  0
 12 13  2  0  0  0
 12 14  1  0  0  0
 14 33  1  0  0  0
 15 16  1  0  0  0
 15 34  1  0  0  0
 15 35  1  0  0  0
 16 17  2  0  0  0
 16 19  1  0  0  0
 17 18  1  0  0  0
 17 22  1  0  0  0
 18 23  1  0  0  0
 18 36  1  0  0  0
 19 20  2  0  0  0
 19 37  1  0  0  0
 20 21  1  0  0  0
 20 38  1  0  0  0
 21 22  2  0  0  0
 21 39  1  0  0  0
 22 40  1  0  0  0
 23 24  1  0  0  0
 23 41  1  0  0  0
 23 42  1  0  0  0
 24 26  2  0  0  0
 24 25  1  0  0  0
 25 43  1  0  0  0
M  END
$$$$
