IN8
  CCTOOLS-0919241033

 46 48  0  0  1  0  0  0  0  0999 V2000
   -0.6070   -0.2640    3.6430 C   0  0  0  0  0
    1.0660    0.0590    5.6890 C   0  0  0  0  0
   -1.4860   -0.0380    1.4510 C   0  0  0  0  0
   -3.9740    1.0790   -2.4940 C   0  0  0  0  0
   -4.9480    0.8020   -3.4350 C   0  0  0  0  0
   -5.2050   -0.5050   -3.8010 C   0  0  0  0  0
   -4.4860   -1.5370   -3.2260 C   0  0  0  0  0
   -3.5090   -1.2590   -2.2880 C   0  0  0  0  0
   -0.1010    0.6560   -2.1030 C   0  0  0  0  0
    1.9470    1.0650   -3.3310 C   0  0  0  0  0
    5.5210   -1.0390   -4.3560 C   0  0  0  0  0
    4.4210   -1.0950   -5.1920 C   0  0  0  0  0
    3.2650   -0.4140   -4.8610 C   0  0  0  0  0
    5.4640   -0.3000   -3.1890 C   0  0  0  0  0
   -0.4740   -0.7870    5.3510 S   0  0  0  0  0
    0.4930    0.4610    3.5390 N   0  0  0  0  0
    1.2840    0.6200    4.5090 N   0  0  0  0  0
   -1.5890   -0.5430    2.6960 N   0  0  0  0  0
    2.0170    0.1310    7.1710 S   0  0  0  0  0
   -0.5390    0.6590    1.1550 O   0  0  0  0  0
   -2.5480   -0.3390    0.4250 C   0  0  0  0  0
   -2.1940    0.3490   -0.8930 C   0  0  0  0  0
   -3.2560    0.0480   -1.9190 C   0  0  0  0  0
    1.0870    0.2020   -2.5420 O   0  0  0  0  0
   -0.4540    1.7880   -2.3680 O   0  0  0  0  0
   -0.9000   -0.1440   -1.3700 N   0  0  0  0  0
    3.2080    0.3220   -3.6930 C   0  0  0  0  0
    4.3090    0.3830   -2.8590 C   0  0  0  0  0
   -3.7740    2.1010   -2.2090 H   0  0  0  0  0
   -5.5100    1.6080   -3.8840 H   0  0  0  0  0
   -5.9660   -0.7210   -4.5350 H   0  0  0  0  0
   -4.6860   -2.5590   -3.5110 H   0  0  0  0  0
   -2.9470   -2.0650   -1.8390 H   0  0  0  0  0
    1.4270    1.3620   -4.2420 H   0  0  0  0  0
    2.2020    1.9520   -2.7520 H   0  0  0  0  0
    6.4240   -1.5710   -4.6150 H   0  0  0  0  0
    4.4660   -1.6720   -6.1040 H   0  0  0  0  0
    2.4060   -0.4590   -5.5140 H   0  0  0  0  0
    6.3230   -0.2560   -2.5360 H   0  0  0  0  0
   -2.3460   -1.1010    2.9320 H   0  0  0  0  0
    3.0320    0.9120    6.7590 H   0  0  0  0  0
   -2.6060   -1.4160    0.2680 H   0  0  0  0  0
   -3.5110    0.0280    0.7800 H   0  0  0  0  0
   -2.1360    1.4260   -0.7360 H   0  0  0  0  0
   -0.6180   -1.0480   -1.1590 H   0  0  0  0  0
    4.2650    0.9600   -1.9470 H   0  0  0  0  0
  1 15  1  0  0  0
  1 16  2  0  0  0
  1 18  1  0  0  0
  2 15  1  0  0  0
  2 17  2  0  0  0
  2 19  1  0  0  0
  3 18  1  0  0  0
  3 20  2  0  0  0
  3 21  1  0  0  0
  4  5  2  0  0  0
  4 23  1  0  0  0
  4 29  1  0  0  0
  5  6  1  0  0  0
  5 30  1  0  0  0
  6  7  2  0  0  0
  6 31  1  0  0  0
  7  8  1  0  0  0
  7 32  1  0  0  0
  8 23  2  0  0  0
  8 33  1  0  0  0
  9 24  1  0  0  0
  9 25  2  0  0  0
  9 26  1  0  0  0
 10 24  1  0  0  0
 10 27  1  0  0  0
 10 34  1  0  0  0
 10 35  1  0  0  0
 11 12  2  0  0  0
 11 14  1  0  0  0
 11 36  1  0  0  0
 12 13  1  0  0  0
 12 37  1  0  0  0
 13 27  2  0  0  0
 13 38  1  0  0  0
 14 28  2  0  0  0
 14 39  1  0  0  0
 16 17  1  0  0  0
 18 40  1  0  0  0
 19 41  1  0  0  0
 21 22  1  0  0  0
 21 42  1  0  0  0
 21 43  1  0  0  0
 22 23  1  0  0  0
 22 26  1  0  0  0
 22 44  1  0  0  0
 26 45  1  0  0  0
 27 28  1  0  0  0
 28 46  1  0  0  0
M  END
$$$$
