IN9
  CCTOOLS-0919241033

 37 38  0  0  1  0  0  0  0  0999 V2000
   -0.0410   -0.2450   -2.9930 C   0  0  0  0  0
   -0.9170    0.3930   -5.4520 C   0  0  0  0  0
    0.9410   -0.0140   -0.8440 C   0  0  0  0  0
    1.6150   -0.2030    2.7450 C   0  0  0  0  0
   -0.6650   -1.2280    2.6060 C   0  0  0  0  0
    0.1220   -0.1410    2.9430 C   0  0  0  0  0
   -0.4580    1.0000    3.4670 C   0  0  0  0  0
   -1.8320    1.0590    3.6440 C   0  0  0  0  0
   -2.6210   -0.0270    3.3080 C   0  0  0  0  0
   -2.0380   -1.1720    2.7880 C   0  0  0  0  0
    5.4760   -0.9330    0.4480 C   0  0  0  0  0
   -0.8500   -1.0310   -4.3770 S   0  0  0  0  0
    0.1010    0.9860   -3.4400 N   0  0  0  0  0
   -0.3420    1.3130   -4.7000 N   0  0  0  0  0
    0.3330   -0.7880   -1.7650 N   0  0  0  0  0
   -1.5760    0.5340   -7.0800 S   0  0  0  0  0
    1.1620    1.1560   -1.0840 O   0  0  0  0  0
    1.3040   -0.5390    0.3420 N   0  0  0  0  0
    1.9650    0.3010    1.3430 C   0  0  0  0  0
    3.4570    0.2390    1.1450 C   0  0  0  0  0
    4.1480    1.1920    1.4400 O   0  0  0  0  0
    4.0250   -0.8730    0.6400 N   0  0  0  0  0
    0.3110    2.0600    3.7950 F   0  0  0  0  0
   -2.3990    2.1760    4.1510 F   0  0  0  0  0
   -3.9590    0.0270    3.4860 F   0  0  0  0  0
   -2.8070   -2.2330    2.4600 F   0  0  0  0  0
   -0.0960   -2.3440    2.1000 F   0  0  0  0  0
    1.9540   -1.2330    2.8550 H   0  0  0  0  0
    2.1070    0.4220    3.4900 H   0  0  0  0  0
    5.7470   -1.9040    0.0330 H   0  0  0  0  0
    5.7840   -0.1460   -0.2390 H   0  0  0  0  0
    5.9750   -0.7950    1.4060 H   0  0  0  0  0
    0.1570   -1.7220   -1.5740 H   0  0  0  0  0
   -1.3220    1.8320   -7.3240 H   0  0  0  0  0
    1.1270   -1.4730    0.5340 H   0  0  0  0  0
    1.6260    1.3310    1.2330 H   0  0  0  0  0
    3.4720   -1.6350    0.4040 H   0  0  0  0  0
  1 12  1  0  0  0
  1 13  2  0  0  0
  1 15  1  0  0  0
  2 12  1  0  0  0
  2 14  2  0  0  0
  2 16  1  0  0  0
  3 15  1  0  0  0
  3 17  2  0  0  0
  3 18  1  0  0  0
  4  6  1  0  0  0
  4 19  1  0  0  0
  4 28  1  0  0  0
  4 29  1  0  0  0
  5  6  2  0  0  0
  5 10  1  0  0  0
  5 27  1  0  0  0
  6  7  1  0  0  0
  7  8  2  0  0  0
  7 23  1  0  0  0
  8  9  1  0  0  0
  8 24  1  0  0  0
  9 10  2  0  0  0
  9 25  1  0  0  0
 10 26  1  0  0  0
 11 22  1  0  0  0
 11 30  1  0  0  0
 11 31  1  0  0  0
 11 32  1  0  0  0
 13 14  1  0  0  0
 15 33  1  0  0  0
 16 34  1  0  0  0
 18 19  1  0  0  0
 18 35  1  0  0  0
 19 20  1  0  0  0
 19 36  1  0  0  0
 20 21  2  0  0  0
 20 22  1  0  0  0
 22 37  1  0  0  0
M  END
$$$$
