INH
  CCTOOLS-0919241033

 70 71  0  0  1  0  0  0  0  0999 V2000
   -2.1050    4.3420   -0.9290 C   0  0  0  0  0
   -1.6910    3.1820   -1.8370 C   0  0  0  0  0
   -2.1190    3.4750   -3.2520 C   0  0  0  0  0
   -2.8830    2.7290   -3.8190 O   0  0  0  0  0
   -1.6520    4.5630   -3.8830 O   0  0  0  0  0
   -2.3360    1.9450   -1.3760 N   0  0  0  0  0
   -1.6020    1.3590   -0.2470 C   0  0  0  0  0
   -2.5260    0.4170    0.5280 C   0  0  0  0  0
   -3.6540    1.2260    1.1730 C   0  0  0  0  0
   -4.5640    0.2990    1.9360 C   0  0  0  0  0
   -4.3130    0.0250    3.2670 C   0  0  0  0  0
   -5.1480   -0.8260    3.9670 C   0  0  0  0  0
   -6.2350   -1.4010    3.3360 C   0  0  0  0  0
   -6.4870   -1.1260    2.0060 C   0  0  0  0  0
   -5.6540   -0.2720    1.3060 C   0  0  0  0  0
   -0.4170    0.5850   -0.7650 C   0  0  0  0  0
   -0.3590    0.2780   -1.9370 O   0  0  0  0  0
    0.5770    0.2330    0.0740 N   0  0  0  0  0
    1.7290   -0.5190   -0.4300 C   0  0  0  0  0
    2.9380   -0.2650    0.4720 C   0  0  0  0  0
    3.3440    1.2070    0.3770 C   0  0  0  0  0
    4.5530    1.4620    1.2790 C   0  0  0  0  0
    4.9420    2.8720    1.1880 N   0  0  0  0  0
    6.0050    3.3360    1.9120 C   0  0  0  0  0
    6.6880    2.5070    2.7000 N   0  0  0  0  0
    6.3580    4.6180    1.8300 N   0  3  0  0  0
    1.4050   -1.9910   -0.4330 C   0  0  0  0  0
    0.3190   -2.3740   -0.0510 O   0  0  0  0  0
    2.3220   -2.8820   -0.8590 N   0  0  0  0  0
    1.9890   -4.2380   -0.9540 C   0  0  0  0  0
    0.7020   -4.6150   -1.3130 C   0  0  0  0  0
    0.3760   -5.9530   -1.4060 C   0  0  0  0  0
    1.3310   -6.9190   -1.1420 C   0  0  0  0  0
    2.6140   -6.5470   -0.7850 C   0  0  0  0  0
    2.9470   -5.2090   -0.6960 C   0  0  0  0  0
   -1.8740    4.0930    0.1070 H   0  0  0  0  0
   -1.5590    5.2410   -1.2160 H   0  0  0  0  0
   -3.1750    4.5190   -1.0310 H   0  0  0  0  0
   -0.6080    3.0620   -1.8030 H   0  0  0  0  0
   -1.9550    4.7090   -4.7900 H   0  0  0  0  0
   -3.3010    2.1090   -1.1340 H   0  0  0  0  0
   -1.2560    2.1530    0.4140 H   0  0  0  0  0
   -2.9520   -0.3180   -0.1550 H   0  0  0  0  0
   -1.9570   -0.0940    1.3040 H   0  0  0  0  0
   -3.2290    1.9620    1.8560 H   0  0  0  0  0
   -4.2240    1.7380    0.3970 H   0  0  0  0  0
   -3.4640    0.4750    3.7600 H   0  0  0  0  0
   -4.9510   -1.0410    5.0070 H   0  0  0  0  0
   -6.8870   -2.0660    3.8830 H   0  0  0  0  0
   -7.3360   -1.5760    1.5130 H   0  0  0  0  0
   -5.8530   -0.0540    0.2680 H   0  0  0  0  0
    0.5300    0.4780    1.0110 H   0  0  0  0  0
    1.9580   -0.1960   -1.4460 H   0  0  0  0  0
    2.6800   -0.5050    1.5030 H   0  0  0  0  0
    3.7700   -0.8920    0.1500 H   0  0  0  0  0
    3.6020    1.4480   -0.6540 H   0  0  0  0  0
    2.5120    1.8350    0.6990 H   0  0  0  0  0
    4.2950    1.2220    2.3100 H   0  0  0  0  0
    5.3850    0.8350    0.9570 H   0  0  0  0  0
    4.4440    3.4760    0.6150 H   0  0  0  0  0
    6.4310    1.5730    2.7590 H   0  0  0  0  0
    7.4420    2.8360    3.2130 H   0  0  0  0  0
    7.1120    4.9470    2.3430 H   0  0  0  0  0
    5.8610    5.2220    1.2570 H   0  0  0  0  0
    3.2130   -2.5830   -1.1000 H   0  0  0  0  0
   -0.0450   -3.8610   -1.5180 H   0  0  0  0  0
   -0.6250   -6.2470   -1.6840 H   0  0  0  0  0
    1.0740   -7.9650   -1.2150 H   0  0  0  0  0
    3.3570   -7.3030   -0.5790 H   0  0  0  0  0
    3.9510   -4.9200   -0.4220 H   0  0  0  0  0
  1  2  1  0  0  0
  1 36  1  0  0  0
  1 37  1  0  0  0
  1 38  1  0  0  0
  2  3  1  0  0  0
  2  6  1  0  0  0
  2 39  1  0  0  0
  3  4  2  0  0  0
  3  5  1  0  0  0
  5 40  1  0  0  0
  6  7  1  0  0  0
  6 41  1  0  0  0
  7  8  1  0  0  0
  7 16  1  0  0  0
  7 42  1  0  0  0
  8  9  1  0  0  0
  8 43  1  0  0  0
  8 44  1  0  0  0
  9 10  1  0  0  0
  9 45  1  0  0  0
  9 46  1  0  0  0
 10 11  2  0  0  0
 10 15  1  0  0  0
 11 12  1  0  0  0
 11 47  1  0  0  0
 12 13  2  0  0  0
 12 48  1  0  0  0
 13 14  1  0  0  0
 13 49  1  0  0  0
 14 15  2  0  0  0
 14 50  1  0  0  0
 15 51  1  0  0  0
 16 17  2  0  0  0
 16 18  1  0  0  0
 18 19  1  0  0  0
 18 52  1  0  0  0
 19 20  1  0  0  0
 19 27  1  0  0  0
 19 53  1  0  0  0
 20 21  1  0  0  0
 20 54  1  0  0  0
 20 55  1  0  0  0
 21 22  1  0  0  0
 21 56  1  0  0  0
 21 57  1  0  0  0
 22 23  1  0  0  0
 22 58  1  0  0  0
 22 59  1  0  0  0
 23 24  1  0  0  0
 23 60  1  0  0  0
 24 25  1  0  0  0
 24 26  2  0  0  0
 25 61  1  0  0  0
 25 62  1  0  0  0
 26 63  1  0  0  0
 26 64  1  0  0  0
 27 28  2  0  0  0
 27 29  1  0  0  0
 29 30  1  0  0  0
 29 65  1  0  0  0
 30 31  2  0  0  0
 30 35  1  0  0  0
 31 32  1  0  0  0
 31 66  1  0  0  0
 32 33  2  0  0  0
 32 67  1  0  0  0
 33 34  1  0  0  0
 33 68  1  0  0  0
 34 35  2  0  0  0
 34 69  1  0  0  0
 35 70  1  0  0  0
M  CHG  1  26   1
M  END
$$$$
