INI
  CCTOOLS-0919241033

 35 35  0  0  1  0  0  0  0  0999 V2000
    1.5810    0.1870   -1.8420 N   0  0  0  0  0
    2.1400    0.2330   -3.0600 C   0  0  0  0  0
    3.3450    0.3690   -3.1450 O   0  0  0  0  0
    1.4220    0.1400   -4.1910 N   0  0  0  0  0
    0.0820   -0.0110   -4.1520 C   0  0  0  0  0
   -0.5640   -0.0940   -5.1780 O   0  0  0  0  0
   -0.5790   -0.0730   -2.8340 C   0  0  0  0  0
   -1.8940   -0.2220   -2.7330 N   0  3  0  0  0
   -2.6720   -0.4450   -3.8940 O   0  5  0  0  0
   -2.4300   -0.1660   -1.6410 O   0  0  0  0  0
    0.2380    0.0300   -1.6810 C   0  0  0  0  0
   -0.3050   -0.0190   -0.4450 N   0  0  0  0  0
    0.5600   -0.0300    0.7350 C   0  0  0  0  0
   -0.3000   -0.0890    1.9990 C   0  0  0  0  0
   -1.1560    1.0540    2.0460 O   0  0  0  0  0
    0.6030   -0.1010    3.2320 C   0  0  0  0  0
    1.4590   -1.2440    3.1850 O   0  0  0  0  0
   -0.2570   -0.1600    4.4960 C   0  0  0  0  0
   -1.1130    0.9830    4.5430 O   0  0  0  0  0
    0.6460   -0.1710    5.7300 C   0  0  0  0  0
   -0.1570   -0.2260    6.9090 O   0  0  0  0  0
    2.1480    0.2580   -1.0570 H   0  0  0  0  0
    1.8730    0.1830   -5.0490 H   0  0  0  0  0
   -1.2690   -0.0480   -0.3400 H   0  0  0  0  0
    1.1650    0.8750    0.7510 H   0  0  0  0  0
    1.2120   -0.9020    0.6990 H   0  0  0  0  0
   -0.9060   -0.9950    1.9830 H   0  0  0  0  0
   -0.5820    1.8320    2.0580 H   0  0  0  0  0
    1.2090    0.8050    3.2480 H   0  0  0  0  0
    0.8850   -2.0220    3.1730 H   0  0  0  0  0
   -0.8630   -1.0660    4.4800 H   0  0  0  0  0
   -0.5390    1.7610    4.5550 H   0  0  0  0  0
    1.2520    0.7340    5.7450 H   0  0  0  0  0
    1.2990   -1.0440    5.6940 H   0  0  0  0  0
    0.4490   -0.2320    7.6620 H   0  0  0  0  0
  1  2  1  0  0  0
  1 11  1  0  0  0
  1 22  1  0  0  0
  2  3  2  0  0  0
  2  4  1  0  0  0
  4  5  1  0  0  0
  4 23  1  0  0  0
  5  6  2  0  0  0
  5  7  1  0  0  0
  7  8  1  0  0  0
  7 11  2  0  0  0
  8  9  1  0  0  0
  8 10  2  0  0  0
 11 12  1  0  0  0
 12 13  1  0  0  0
 12 24  1  0  0  0
 13 14  1  0  0  0
 13 25  1  0  0  0
 13 26  1  0  0  0
 14 15  1  0  0  0
 14 16  1  0  0  0
 14 27  1  0  0  0
 15 28  1  0  0  0
 16 17  1  0  0  0
 16 18  1  0  0  0
 16 29  1  0  0  0
 17 30  1  0  0  0
 18 19  1  0  0  0
 18 20  1  0  0  0
 18 31  1  0  0  0
 19 32  1  0  0  0
 20 21  1  0  0  0
 20 33  1  0  0  0
 20 34  1  0  0  0
 21 35  1  0  0  0
M  CHG  1   8   1
M  CHG  1   9  -1
M  END
$$$$
