IOG
  CCTOOLS-0919241034

 78 82  0  0  0  0  0  0  0  0999 V2000
   11.0990    4.2530    2.8280 C   0  0  0  0  0
   11.4610    3.1880    2.0170 C   0  0  0  0  0
   12.7850    2.7490    2.0120 C   0  0  0  0  0
   13.7310    3.3810    2.8180 C   0  0  0  0  0
   15.0230    2.9520    2.8150 O   0  0  0  0  0
   13.3540    4.4510    3.6290 C   0  0  0  0  0
   12.0300    4.8900    3.6340 C   0  0  0  0  0
    9.6670    4.7260    2.8330 C   0  0  0  0  0
    9.3680    5.8160    1.7920 C   0  0  0  0  0
    7.9300    6.3600    1.8350 C   0  0  0  0  0
    7.7510    7.4860    0.8200 C   0  0  0  0  0
    6.9660    5.3160    1.5790 N   0  0  0  0  0
    5.6870    5.3310    2.1180 C   0  0  0  0  0
    5.2430    6.2100    2.8520 O   0  0  0  0  0
    4.8610    4.1180    1.6940 C   0  0  0  0  0
    3.7960    3.7440    2.6500 C   0  0  0  0  0
    3.9180    2.8680    3.7040 C   0  0  0  0  0
    2.7060    2.7980    4.3360 N   0  0  0  0  0
    1.7950    3.6180    3.7090 C   0  0  0  0  0
    0.4490    3.8640    4.0020 C   0  0  0  0  0
   -0.2320    4.7580    3.1770 C   0  0  0  0  0
    0.3970    5.3820    2.1050 C   0  0  0  0  0
    1.7440    5.1260    1.8240 C   0  0  0  0  0
    2.4580    4.2260    2.6410 C   0  0  0  0  0
    5.0550    2.1020    4.1600 C   0  0  0  0  0
    5.9280    2.6460    5.1010 C   0  0  0  0  0
    7.0260    1.9070    5.5410 C   0  0  0  0  0
    7.2490    0.6240    5.0410 C   0  0  0  0  0
    6.3750    0.0810    4.0990 C   0  0  0  0  0
    5.2770    0.8200    3.6590 C   0  0  0  0  0
   -1.5510    5.0280    3.4300 O   0  0  0  0  0
   -1.9730    4.9460    4.7850 C   0  0  0  0  0
   -3.1200    5.9130    5.0150 C   0  0  0  0  0
   -3.5820    5.8070    6.3980 N   0  0  0  0  0
   -2.5030    6.1650    7.3290 C   0  0  0  0  0
   -2.9550    6.0120    8.7830 C   0  0  0  0  0
   -4.2100    6.8310    9.0630 C   0  0  0  0  0
   -5.2940    6.5110    8.0400 C   0  0  0  0  0
   -4.7680    6.6480    6.6100 C   0  0  0  0  0
   10.7300    2.6890    1.3850 H   0  0  0  0  0
   13.0720    1.9150    1.3780 H   0  0  0  0  0
   15.0560    1.9840    2.8860 H   0  0  0  0  0
   14.0870    4.9470    4.2610 H   0  0  0  0  0
   11.7450    5.7240    4.2690 H   0  0  0  0  0
    8.9870    3.8770    2.6980 H   0  0  0  0  0
    9.4440    5.1210    3.8330 H   0  0  0  0  0
    9.5780    5.4290    0.7870 H   0  0  0  0  0
   10.0710    6.6430    1.9610 H   0  0  0  0  0
    7.7070    6.7560    2.8310 H   0  0  0  0  0
    7.9990    7.1510   -0.1930 H   0  0  0  0  0
    6.7190    7.8510    0.8180 H   0  0  0  0  0
    8.4070    8.3300    1.0580 H   0  0  0  0  0
    7.2340    4.5390    0.9820 H   0  0  0  0  0
    5.5620    3.2770    1.5340 H   0  0  0  0  0
    4.4390    4.3400    0.6950 H   0  0  0  0  0
    2.5030    2.2290    5.1470 H   0  0  0  0  0
   -0.0420    3.3780    4.8390 H   0  0  0  0  0
   -0.1530    6.0760    1.4740 H   0  0  0  0  0
    2.2250    5.6170    0.9830 H   0  0  0  0  0
    5.7680    3.6450    5.5000 H   0  0  0  0  0
    7.7070    2.3310    6.2730 H   0  0  0  0  0
    8.1040    0.0480    5.3830 H   0  0  0  0  0
    6.5480   -0.9180    3.7100 H   0  0  0  0  0
    4.6050    0.3820    2.9250 H   0  0  0  0  0
   -2.3040    3.9200    4.9750 H   0  0  0  0  0
   -1.1210    5.1720    5.4340 H   0  0  0  0  0
   -2.8090    6.9470    4.8350 H   0  0  0  0  0
   -3.9600    5.6720    4.3550 H   0  0  0  0  0
   -2.1640    7.1950    7.1530 H   0  0  0  0  0
   -1.6420    5.5060    7.1640 H   0  0  0  0  0
   -2.1500    6.3260    9.4560 H   0  0  0  0  0
   -3.1540    4.9540    8.9960 H   0  0  0  0  0
   -4.5750    6.6260   10.0750 H   0  0  0  0  0
   -3.9680    7.9000    9.0170 H   0  0  0  0  0
   -5.6580    5.4880    8.2020 H   0  0  0  0  0
   -6.1490    7.1810    8.1860 H   0  0  0  0  0
   -5.5630    6.3430    5.9190 H   0  0  0  0  0
   -4.5400    7.7010    6.4000 H   0  0  0  0  0
  1  7  1  0  0  0
  1  8  1  0  0  0
  1  2  2  0  0  0
  2  3  1  0  0  0
  2 40  1  0  0  0
  3  4  2  0  0  0
  3 41  1  0  0  0
  4  6  1  0  0  0
  4  5  1  0  0  0
  5 42  1  0  0  0
  6  7  2  0  0  0
  6 43  1  0  0  0
  7 44  1  0  0  0
  8  9  1  0  0  0
  8 45  1  0  0  0
  8 46  1  0  0  0
  9 10  1  0  0  0
  9 47  1  0  0  0
  9 48  1  0  0  0
 10 12  1  0  0  0
 10 11  1  0  0  0
 10 49  1  0  0  0
 11 50  1  0  0  0
 11 51  1  0  0  0
 11 52  1  0  0  0
 12 13  1  0  0  0
 12 53  1  0  0  0
 13 15  1  0  0  0
 13 14  2  0  0  0
 15 16  1  0  0  0
 15 54  1  0  0  0
 15 55  1  0  0  0
 16 24  1  0  0  0
 16 17  2  0  0  0
 17 18  1  0  0  0
 17 25  1  0  0  0
 18 19  1  0  0  0
 18 56  1  0  0  0
 19 20  2  0  0  0
 19 24  1  0  0  0
 20 21  1  0  0  0
 20 57  1  0  0  0
 21 31  1  0  0  0
 21 22  2  0  0  0
 22 23  1  0  0  0
 22 58  1  0  0  0
 23 24  2  0  0  0
 23 59  1  0  0  0
 25 30  2  0  0  0
 25 26  1  0  0  0
 26 27  2  0  0  0
 26 60  1  0  0  0
 27 28  1  0  0  0
 27 61  1  0  0  0
 28 29  2  0  0  0
 28 62  1  0  0  0
 29 30  1  0  0  0
 29 63  1  0  0  0
 30 64  1  0  0  0
 31 32  1  0  0  0
 32 33  1  0  0  0
 32 65  1  0  0  0
 32 66  1  0  0  0
 33 34  1  0  0  0
 33 67  1  0  0  0
 33 68  1  0  0  0
 34 35  1  0  0  0
 34 39  1  0  0  0
 35 36  1  0  0  0
 35 69  1  0  0  0
 35 70  1  0  0  0
 36 37  1  0  0  0
 36 71  1  0  0  0
 36 72  1  0  0  0
 37 38  1  0  0  0
 37 73  1  0  0  0
 37 74  1  0  0  0
 38 39  1  0  0  0
 38 75  1  0  0  0
 38 76  1  0  0  0
 39 77  1  0  0  0
 39 78  1  0  0  0
M  END
$$$$
