IOK
  CCTOOLS-0919241034

 56 59  0  0  0  0  0  0  0  0999 V2000
   -0.9730    6.6540    3.0630 C   0  0  0  0  0
   -0.2520    7.8120    3.3150 C   0  0  0  0  0
    0.7490    8.2030    2.4260 C   0  0  0  0  0
    1.0170    7.4310    1.2950 C   0  0  0  0  0
    1.9930    7.8130    0.4260 O   0  0  0  0  0
    0.2850    6.2680    1.0540 C   0  0  0  0  0
   -0.7160    5.8780    1.9440 C   0  0  0  0  0
   -2.0560    6.2320    4.0250 C   0  0  0  0  0
   -1.5630    5.3140    5.1530 C   0  0  0  0  0
   -2.6690    4.8180    6.0990 C   0  0  0  0  0
   -2.0980    3.8550    7.1370 C   0  0  0  0  0
   -3.3240    5.9190    6.7650 N   0  0  0  0  0
   -4.6830    6.1680    6.6360 C   0  0  0  0  0
   -5.4610    5.5000    5.9610 O   0  0  0  0  0
   -5.1310    7.3860    7.4420 C   0  0  0  0  0
   -6.3330    8.0610    6.9060 C   0  0  0  0  0
   -6.3510    9.0830    5.9850 C   0  0  0  0  0
   -7.6580    9.4220    5.7580 N   0  0  0  0  0
   -8.4920    8.6350    6.5180 C   0  0  0  0  0
   -9.8880    8.6240    6.6110 C   0  0  0  0  0
  -10.4710    7.6980    7.4810 C   0  0  0  0  0
   -9.6870    6.8200    8.2260 C   0  0  0  0  0
   -8.2920    6.8420    8.1230 C   0  0  0  0  0
   -7.6810    7.7670    7.2520 C   0  0  0  0  0
   -5.2660    9.7570    5.3120 C   0  0  0  0  0
   -4.7960    9.2740    4.0910 C   0  0  0  0  0
   -3.7490    9.9260    3.4400 C   0  0  0  0  0
   -3.1710   11.0600    4.0110 C   0  0  0  0  0
   -3.6420   11.5430    5.2320 C   0  0  0  0  0
   -4.6900   10.8910    5.8830 C   0  0  0  0  0
   -0.4540    8.4200    4.1930 H   0  0  0  0  0
    1.3160    9.1090    2.6190 H   0  0  0  0  0
    2.3830    8.6560    0.7080 H   0  0  0  0  0
    0.4890    5.6630    0.1750 H   0  0  0  0  0
   -1.2820    4.9710    1.7480 H   0  0  0  0  0
   -2.5530    7.1150    4.4450 H   0  0  0  0  0
   -2.8310    5.7060    3.4530 H   0  0  0  0  0
   -0.7940    5.8340    5.7380 H   0  0  0  0  0
   -1.0700    4.4480    4.6900 H   0  0  0  0  0
   -3.4420    4.2910    5.5300 H   0  0  0  0  0
   -1.2900    4.3230    7.7110 H   0  0  0  0  0
   -2.8730    3.5290    7.8380 H   0  0  0  0  0
   -1.6830    2.9640    6.6530 H   0  0  0  0  0
   -2.7680    6.5360    7.3510 H   0  0  0  0  0
   -4.2750    8.0860    7.4930 H   0  0  0  0  0
   -5.2950    7.0510    8.4840 H   0  0  0  0  0
   -7.9710   10.1450    5.1240 H   0  0  0  0  0
  -10.5000    9.3070    6.0310 H   0  0  0  0  0
  -11.5540    7.6640    7.5760 H   0  0  0  0  0
  -10.1630    6.1090    8.8960 H   0  0  0  0  0
   -7.6950    6.1510    8.7110 H   0  0  0  0  0
   -5.2360    8.3910    3.6330 H   0  0  0  0  0
   -3.3820    9.5490    2.4900 H   0  0  0  0  0
   -2.3560   11.5680    3.5050 H   0  0  0  0  0
   -3.1930   12.4260    5.6770 H   0  0  0  0  0
   -5.0450   11.2800    6.8340 H   0  0  0  0  0
  1  7  1  0  0  0
  1  8  1  0  0  0
  1  2  2  0  0  0
  2  3  1  0  0  0
  2 31  1  0  0  0
  3  4  2  0  0  0
  3 32  1  0  0  0
  4  6  1  0  0  0
  4  5  1  0  0  0
  5 33  1  0  0  0
  6  7  2  0  0  0
  6 34  1  0  0  0
  7 35  1  0  0  0
  8  9  1  0  0  0
  8 36  1  0  0  0
  8 37  1  0  0  0
  9 10  1  0  0  0
  9 38  1  0  0  0
  9 39  1  0  0  0
 10 11  1  0  0  0
 10 12  1  0  0  0
 10 40  1  0  0  0
 11 41  1  0  0  0
 11 42  1  0  0  0
 11 43  1  0  0  0
 12 13  1  0  0  0
 12 44  1  0  0  0
 13 14  2  0  0  0
 13 15  1  0  0  0
 15 16  1  0  0  0
 15 45  1  0  0  0
 15 46  1  0  0  0
 16 24  1  0  0  0
 16 17  2  0  0  0
 17 18  1  0  0  0
 17 25  1  0  0  0
 18 19  1  0  0  0
 18 47  1  0  0  0
 19 24  2  0  0  0
 19 20  1  0  0  0
 20 21  2  0  0  0
 20 48  1  0  0  0
 21 22  1  0  0  0
 21 49  1  0  0  0
 22 23  2  0  0  0
 22 50  1  0  0  0
 23 24  1  0  0  0
 23 51  1  0  0  0
 25 26  2  0  0  0
 25 30  1  0  0  0
 26 27  1  0  0  0
 26 52  1  0  0  0
 27 28  2  0  0  0
 27 53  1  0  0  0
 28 29  1  0  0  0
 28 54  1  0  0  0
 29 30  2  0  0  0
 29 55  1  0  0  0
 30 56  1  0  0  0
M  END
$$$$
