IPE
  CCTOOLS-0919241034

 26 25  0  0  1  0  0  0  0  0999 V2000
    2.1330   -0.0350   -0.1290 C   0  0  0  0  0
    1.0080   -0.1270   -1.0060 O   0  0  0  0  0
    3.4170   -0.3010   -0.9170 C   0  0  0  0  0
    4.6030   -0.2030    0.0070 C   0  0  0  0  0
    5.0910   -1.2840    0.5630 C   0  0  0  0  0
    5.2280    1.1390    0.2920 C   0  0  0  0  0
   -0.3010    0.1620   -0.1150 P   0  0  0  0  0
   -0.3300   -0.7670    1.0370 O   0  0  0  0  0
   -0.2610    1.6800    0.4210 O   0  0  0  0  0
   -1.6200   -0.0550   -1.0120 O   0  0  0  0  0
   -2.8650   -0.1470    0.0040 P   0  0  0  0  0
   -3.2990    1.3360    0.4570 O   0  0  0  0  0
   -2.4720   -0.9310    1.1960 O   0  0  0  0  0
   -4.1040   -0.8680   -0.7280 O   0  0  0  0  0
    2.0350   -0.7730    0.6670 H   0  0  0  0  0
    2.1740    0.9640    0.3050 H   0  0  0  0  0
    3.5150    0.4380   -1.7130 H   0  0  0  0  0
    3.3760   -1.2990   -1.3520 H   0  0  0  0  0
    5.9420   -1.2140    1.2250 H   0  0  0  0  0
    4.6440   -2.2450    0.3580 H   0  0  0  0  0
    6.0660    1.0110    0.9770 H   0  0  0  0  0
    5.5830    1.5800   -0.6390 H   0  0  0  0  0
    4.4860    1.7960    0.7460 H   0  0  0  0  0
   -0.2430    2.2510   -0.3580 H   0  0  0  0  0
   -3.5470    1.8130   -0.3470 H   0  0  0  0  0
   -4.8270   -0.9030   -0.0870 H   0  0  0  0  0
  1  2  1  0  0  0
  1  3  1  0  0  0
  1 15  1  0  0  0
  1 16  1  0  0  0
  2  7  1  0  0  0
  3  4  1  0  0  0
  3 17  1  0  0  0
  3 18  1  0  0  0
  4  5  2  0  0  0
  4  6  1  0  0  0
  5 19  1  0  0  0
  5 20  1  0  0  0
  6 21  1  0  0  0
  6 22  1  0  0  0
  6 23  1  0  0  0
  7  8  2  0  0  0
  7  9  1  0  0  0
  7 10  1  0  0  0
  9 24  1  0  0  0
 10 11  1  0  0  0
 11 12  1  0  0  0
 11 13  2  0  0  0
 11 14  1  0  0  0
 12 25  1  0  0  0
 14 26  1  0  0  0
M  END
$$$$
