IPL
  CCTOOLS-0919241034

 31 32  0  0  0  0  0  0  0  0999 V2000
   -1.8720   -0.3910   -3.7920 N   0  0  0  0  0
   -2.0840    0.0300   -2.5070 C   0  0  0  0  0
   -0.9240    0.4250   -1.9580 C   0  0  0  0  0
    1.4910    0.4690   -3.0050 C   0  0  0  0  0
    2.2000    0.1870   -4.1390 C   0  0  0  0  0
    1.5610   -0.3220   -5.2610 C   0  0  0  0  0
    0.2030   -0.5530   -5.2520 C   0  0  0  0  0
   -0.5370   -0.2740   -4.1090 C   0  0  0  0  0
    0.1130    0.2480   -2.9760 C   0  0  0  0  0
   -0.2340    0.3370    1.8060 C   0  0  0  0  0
   -0.4320   -0.2030    0.3880 C   0  0  0  0  0
   -0.7290    0.9570   -0.5620 C   0  0  0  0  0
    0.2390   -0.1090    4.1600 P   0  0  0  0  0
    1.3660    0.8490    4.1340 O   0  0  0  0  0
    0.5570   -1.2810    5.2170 O   0  0  0  0  0
   -1.1070    0.6560    4.5970 O   0  0  0  0  0
    0.0430   -0.7470    2.6940 O   0  0  0  0  0
   -2.5590   -0.7230   -4.3900 H   0  0  0  0  0
   -3.0420    0.0420   -2.0090 H   0  0  0  0  0
    1.9950    0.8650   -2.1360 H   0  0  0  0  0
    3.2650    0.3630   -4.1630 H   0  0  0  0  0
    2.1350   -0.5400   -6.1500 H   0  0  0  0  0
   -0.2840   -0.9510   -6.1300 H   0  0  0  0  0
   -1.1400    0.8480    2.1300 H   0  0  0  0  0
    0.6010    1.0370    1.8150 H   0  0  0  0  0
    0.4740   -0.7150    0.0650 H   0  0  0  0  0
   -1.2670   -0.9030    0.3800 H   0  0  0  0  0
   -1.6350    1.4690   -0.2380 H   0  0  0  0  0
    0.1050    1.6570   -0.5530 H   0  0  0  0  0
    0.6670   -0.8580    6.0790 H   0  0  0  0  0
   -1.8140   -0.0030    4.6010 H   0  0  0  0  0
  1  2  1  0  0  0
  1  8  1  0  0  0
  1 18  1  0  0  0
  2  3  2  0  0  0
  2 19  1  0  0  0
  3  9  1  0  0  0
  3 12  1  0  0  0
  4  5  2  0  0  0
  4  9  1  0  0  0
  4 20  1  0  0  0
  5  6  1  0  0  0
  5 21  1  0  0  0
  6  7  2  0  0  0
  6 22  1  0  0  0
  7  8  1  0  0  0
  7 23  1  0  0  0
  8  9  2  0  0  0
 10 11  1  0  0  0
 10 17  1  0  0  0
 10 24  1  0  0  0
 10 25  1  0  0  0
 11 12  1  0  0  0
 11 26  1  0  0  0
 11 27  1  0  0  0
 12 28  1  0  0  0
 12 29  1  0  0  0
 13 14  2  0  0  0
 13 15  1  0  0  0
 13 16  1  0  0  0
 13 17  1  0  0  0
 15 30  1  0  0  0
 16 31  1  0  0  0
M  END
$$$$
