IPR
  CCTOOLS-0919241034

 28 27  0  0  1  0  0  0  0  0999 V2000
   -0.0170   -0.1010   -2.9340 P   0  0  0  0  0
   -0.5740   -0.8310   -4.2570 O   0  0  0  0  0
   -0.3970    1.4620   -2.9830 O   0  0  0  0  0
    1.4540   -0.2490   -2.8730 O   0  0  0  0  0
   -0.6790   -0.7740   -1.6310 O   0  0  0  0  0
   -0.0800   -0.0000   -0.3520 P   0  0  0  0  0
    1.5200   -0.1630   -0.3280 O   0  0  0  0  0
   -0.4290    1.4340   -0.4370 O   0  0  0  0  0
   -0.7030   -0.6260    0.9930 O   0  0  0  0  0
   -0.1360    0.0980    2.0860 C   0  0  0  0  0
   -0.6900   -0.4480    3.4030 C   0  0  0  0  0
   -0.0830    0.3270    4.5740 C   0  0  0  0  0
   -0.6370   -0.2200    5.8910 C   0  0  0  0  0
    1.4380    0.1690    4.5560 C   0  0  0  0  0
   -0.1540   -0.3980   -5.0130 H   0  0  0  0  0
   -1.3620    1.5130   -3.0230 H   0  0  0  0  0
    1.7040   -1.1110   -0.2730 H   0  0  0  0  0
   -0.3930    1.1540    1.9950 H   0  0  0  0  0
    0.9470   -0.0130    2.0730 H   0  0  0  0  0
   -0.4330   -1.5040    3.4950 H   0  0  0  0  0
   -1.7740   -0.3360    3.4160 H   0  0  0  0  0
   -0.3400    1.3820    4.4820 H   0  0  0  0  0
   -0.2040    0.3320    6.7250 H   0  0  0  0  0
   -1.7210   -0.1070    5.9040 H   0  0  0  0  0
   -0.3800   -1.2750    5.9820 H   0  0  0  0  0
    1.6950   -0.8850    4.6470 H   0  0  0  0  0
    1.8330    0.5590    3.6170 H   0  0  0  0  0
    1.8710    0.7220    5.3890 H   0  0  0  0  0
  1  2  1  0  0  0
  1  3  1  0  0  0
  1  4  2  0  0  0
  1  5  1  0  0  0
  2 15  1  0  0  0
  3 16  1  0  0  0
  5  6  1  0  0  0
  6  7  1  0  0  0
  6  8  2  0  0  0
  6  9  1  0  0  0
  7 17  1  0  0  0
  9 10  1  0  0  0
 10 11  1  0  0  0
 10 18  1  0  0  0
 10 19  1  0  0  0
 11 12  1  0  0  0
 11 20  1  0  0  0
 11 21  1  0  0  0
 12 13  1  0  0  0
 12 14  1  0  0  0
 12 22  1  0  0  0
 13 23  1  0  0  0
 13 24  1  0  0  0
 13 25  1  0  0  0
 14 26  1  0  0  0
 14 27  1  0  0  0
 14 28  1  0  0  0
M  END
$$$$
