IPX
  CCTOOLS-0919241034

 49 52  0  0  1  0  0  0  0  0999 V2000
    0.9850    0.0510    1.2690 C   0  0  0  0  0
   -4.9590   -0.5220    0.3990 C   0  0  0  0  0
   -4.3500   -0.2490   -0.8410 C   0  0  0  0  0
   -6.3480   -0.7000    0.4660 C   0  0  0  0  0
   -5.1370   -0.1580   -1.9860 C   0  0  0  0  0
   -7.1000   -0.6070   -0.6710 C   0  0  0  0  0
   -6.4990   -0.3360   -1.8960 C   0  0  0  0  0
   -2.9990   -0.1220   -0.6160 N   0  0  0  0  0
   -2.7530   -0.3100    0.7300 C   0  0  0  0  0
   -3.9270   -0.5600    1.3670 C   0  0  0  0  0
   -8.4380   -0.7780   -0.6040 F   0  0  0  0  0
   -1.4310   -0.2550    1.3710 C   0  0  0  0  0
   -1.3270   -0.4370    2.5700 O   0  0  0  0  0
   -0.3330   -0.0040    0.6310 N   0  0  0  0  0
    1.2710    1.4660    1.8150 C   0  0  0  0  0
    1.9910    2.1850    0.6940 C   0  0  0  0  0
    2.4710    1.2650   -0.2180 C   0  0  0  0  0
    2.1080   -0.1350    0.2270 C   0  0  0  0  0
    2.2080    3.5370    0.4890 C   0  0  0  0  0
    2.9030    3.9690   -0.6230 C   0  0  0  0  0
    3.3840    3.0490   -1.5360 C   0  0  0  0  0
    3.1680    1.6990   -1.3340 C   0  0  0  0  0
    3.3170   -0.8200    0.8660 C   0  0  0  0  0
    4.3680   -1.1080   -0.2080 C   0  0  0  0  0
    5.5770   -1.7930    0.4310 C   0  0  0  0  0
    6.6120   -2.0760   -0.6270 C   0  0  0  0  0
    6.4030   -1.7620   -1.7760 O   0  0  0  0  0
    7.7650   -2.6770   -0.2950 O   0  0  0  0  0
    1.0610   -0.6930    2.0620 H   0  0  0  0  0
   -6.8220   -0.9100    1.4130 H   0  0  0  0  0
   -4.6800    0.0520   -2.9410 H   0  0  0  0  0
   -7.1080   -0.2660   -2.7860 H   0  0  0  0  0
   -2.3290    0.0670   -1.2910 H   0  0  0  0  0
   -4.0510   -0.7470    2.4240 H   0  0  0  0  0
   -0.4150    0.1400   -0.3250 H   0  0  0  0  0
    0.3380    1.9750    2.0540 H   0  0  0  0  0
    1.9080    1.4090    2.6980 H   0  0  0  0  0
    1.7450   -0.7190   -0.6190 H   0  0  0  0  0
    1.8330    4.2570    1.2020 H   0  0  0  0  0
    3.0700    5.0240   -0.7800 H   0  0  0  0  0
    3.9270    3.3840   -2.4070 H   0  0  0  0  0
    3.5440    0.9810   -2.0470 H   0  0  0  0  0
    3.7450   -0.1670    1.6270 H   0  0  0  0  0
    3.0030   -1.7570    1.3270 H   0  0  0  0  0
    3.9400   -1.7620   -0.9690 H   0  0  0  0  0
    4.6820   -0.1710   -0.6690 H   0  0  0  0  0
    6.0050   -1.1390    1.1910 H   0  0  0  0  0
    5.2630   -2.7290    0.8920 H   0  0  0  0  0
    8.3980   -2.8380   -1.0080 H   0  0  0  0  0
  1 14  1  0  0  0
  1 15  1  0  0  0
  1 18  1  0  0  0
  1 29  1  0  0  0
  2  3  2  0  0  0
  2  4  1  0  0  0
  2 10  1  0  0  0
  3  5  1  0  0  0
  3  8  1  0  0  0
  4  6  2  0  0  0
  4 30  1  0  0  0
  5  7  2  0  0  0
  5 31  1  0  0  0
  6  7  1  0  0  0
  6 11  1  0  0  0
  7 32  1  0  0  0
  8  9  1  0  0  0
  8 33  1  0  0  0
  9 10  2  0  0  0
  9 12  1  0  0  0
 10 34  1  0  0  0
 12 13  2  0  0  0
 12 14  1  0  0  0
 14 35  1  0  0  0
 15 16  1  0  0  0
 15 36  1  0  0  0
 15 37  1  0  0  0
 16 17  2  0  0  0
 16 19  1  0  0  0
 17 18  1  0  0  0
 17 22  1  0  0  0
 18 23  1  0  0  0
 18 38  1  0  0  0
 19 20  2  0  0  0
 19 39  1  0  0  0
 20 21  1  0  0  0
 20 40  1  0  0  0
 21 22  2  0  0  0
 21 41  1  0  0  0
 22 42  1  0  0  0
 23 24  1  0  0  0
 23 43  1  0  0  0
 23 44  1  0  0  0
 24 25  1  0  0  0
 24 45  1  0  0  0
 24 46  1  0  0  0
 25 26  1  0  0  0
 25 47  1  0  0  0
 25 48  1  0  0  0
 26 27  2  0  0  0
 26 28  1  0  0  0
 28 49  1  0  0  0
M  END
$$$$
