IQX
  CCTOOLS-0919241034

 44 46  0  0  0  0  0  0  0  0999 V2000
   -0.5470   -2.9470   -1.6810 N   0  0  0  0  0
   -1.5700   -2.7200   -0.8800 C   0  0  0  0  0
    0.6200   -2.3610   -1.5040 C   0  0  0  0  0
   -1.4550   -1.8430    0.1970 C   0  0  0  0  0
    0.8180   -1.4700   -0.4500 C   0  0  0  0  0
   -0.2440   -1.2030    0.4220 C   0  0  0  0  0
    2.1310   -0.8170   -0.2560 C   0  0  0  0  0
    3.3320   -1.4300   -0.2700 C   0  0  0  0  0
    4.3530   -0.6240   -0.0730 N   0  0  0  0  0
    4.0880    0.6330    0.1070 C   0  0  0  0  0
    2.4020    0.9000    0.0270 S   0  0  0  0  0
    3.4910   -2.9120   -0.4920 C   0  0  0  0  0
    5.0390    1.6200    0.3290 N   0  0  0  0  0
    6.3470    1.3000    0.3680 C   0  0  0  0  0
    7.3790    2.3720    0.6080 C   0  0  0  0  0
    6.6940    0.1490    0.2090 O   0  0  0  0  0
   -2.5470   -1.6100    1.0400 N   0  0  0  0  0
   -2.7810   -0.1070    1.6940 S   0  0  0  0  0
   -3.9740   -0.1850    2.4630 O   0  0  0  0  0
   -1.5310    0.2940    2.2380 O   0  0  0  0  0
   -3.1200    0.9950    0.3620 C   0  0  0  0  0
   -4.3270    1.2800   -0.1360 C   0  0  0  0  0
   -1.9270    1.9220   -0.5450 S   0  0  0  0  0
   -3.1700    2.5950   -1.5080 C   0  0  0  0  0
   -4.3180    2.1380   -1.1360 N   0  0  0  0  0
   -5.5950    0.6700    0.4030 C   0  0  0  0  0
   -2.9560    3.5820   -2.6260 C   0  0  0  0  0
   -2.7460   -3.3460   -1.1060 F   0  0  0  0  0
    1.4330   -2.5740   -2.1830 H   0  0  0  0  0
   -0.1240   -0.5180    1.2480 H   0  0  0  0  0
    3.5050   -3.1200   -1.5620 H   0  0  0  0  0
    4.4260   -3.2490   -0.0450 H   0  0  0  0  0
    2.6570   -3.4410   -0.0310 H   0  0  0  0  0
    6.8810    3.3350    0.7260 H   0  0  0  0  0
    7.9400    2.1400    1.5130 H   0  0  0  0  0
    8.0600    2.4170   -0.2420 H   0  0  0  0  0
   -3.1660   -2.3280    1.2420 H   0  0  0  0  0
   -5.9920    1.3000    1.1990 H   0  0  0  0  0
   -6.3300    0.5910   -0.3990 H   0  0  0  0  0
   -5.3810   -0.3230    0.7980 H   0  0  0  0  0
   -2.8070    3.0440   -3.5630 H   0  0  0  0  0
   -3.8290    4.2280   -2.7130 H   0  0  0  0  0
   -2.0760    4.1880   -2.4120 H   0  0  0  0  0
    4.7610    2.5410    0.4550 H   0  0  0  0  0
  1  2  2  0  0  0
  1  3  1  0  0  0
  2  4  1  0  0  0
  2 28  1  0  0  0
  3  5  2  0  0  0
  3 29  1  0  0  0
  4  6  2  0  0  0
  4 17  1  0  0  0
  5  6  1  0  0  0
  5  7  1  0  0  0
  6 30  1  0  0  0
  7  8  2  0  0  0
  7 11  1  0  0  0
  8  9  1  0  0  0
  8 12  1  0  0  0
  9 10  2  0  0  0
 10 11  1  0  0  0
 10 13  1  0  0  0
 12 31  1  0  0  0
 12 32  1  0  0  0
 12 33  1  0  0  0
 13 14  1  0  0  0
 13 44  1  0  0  0
 14 15  1  0  0  0
 14 16  2  0  0  0
 15 34  1  0  0  0
 15 35  1  0  0  0
 15 36  1  0  0  0
 17 18  1  0  0  0
 17 37  1  0  0  0
 18 19  2  0  0  0
 18 20  2  0  0  0
 18 21  1  0  0  0
 21 22  2  0  0  0
 21 23  1  0  0  0
 22 25  1  0  0  0
 22 26  1  0  0  0
 23 24  1  0  0  0
 24 25  2  0  0  0
 24 27  1  0  0  0
 26 38  1  0  0  0
 26 39  1  0  0  0
 26 40  1  0  0  0
 27 41  1  0  0  0
 27 42  1  0  0  0
 27 43  1  0  0  0
M  END
$$$$
