IRG
  CCTOOLS-0919241034

 37 40  0  0  0  0  0  0  0  0999 V2000
    0.5220   -0.7640   -0.0310 N   0  0  0  0  0
    0.9430    0.4990   -0.0110 C   0  0  0  0  0
    0.1150    1.5260    0.0050 N   0  0  0  0  0
   -1.2110    1.3300    0.0010 C   0  0  0  0  0
   -1.7050    0.0000   -0.0200 C   0  0  0  0  0
   -0.7690   -1.0620   -0.0360 C   0  0  0  0  0
   -4.3760    3.1980    0.0310 N   0  0  0  0  0
    5.1270    1.2520    0.0040 C   0  0  0  0  0
    4.2360    2.3100    0.0190 C   0  0  0  0  0
    4.6620   -0.0510   -0.0170 C   0  0  0  0  0
    2.8770    2.0720    0.0140 C   0  0  0  0  0
    3.3050   -0.3010   -0.0160 C   0  0  0  0  0
   -3.9480    0.8230   -0.0070 C   0  0  0  0  0
   -3.0850   -0.2310   -0.0240 C   0  0  0  0  0
   -2.1150    2.3980    0.0190 C   0  0  0  0  0
   -0.6440   -4.8010   -0.6670 C   0  0  0  0  0
   -0.4620   -4.6580    0.8450 C   0  0  0  0  0
   -1.1910   -2.3750   -0.0570 N   0  0  0  0  0
   -3.4720    2.1390    0.0140 C   0  0  0  0  0
    2.4020    0.7610   -0.0060 C   0  0  0  0  0
   -0.2070   -3.4610   -0.0730 C   0  0  0  0  0
   -5.3300    3.0220    0.0290 H   0  0  0  0  0
   -4.0520    4.1120    0.0460 H   0  0  0  0  0
    6.1900    1.4440    0.0030 H   0  0  0  0  0
    4.6060    3.3250    0.0360 H   0  0  0  0  0
    5.3610   -0.8730   -0.0340 H   0  0  0  0  0
    2.1830    2.8990    0.0270 H   0  0  0  0  0
    2.9420   -1.3180   -0.0320 H   0  0  0  0  0
   -5.0120    0.6410   -0.0100 H   0  0  0  0  0
   -3.4650   -1.2420   -0.0410 H   0  0  0  0  0
   -1.7550    3.4160    0.0350 H   0  0  0  0  0
    0.1030   -5.3780   -1.2120 H   0  0  0  0  0
   -1.6630   -4.8750   -1.0470 H   0  0  0  0  0
   -1.3610   -4.6380    1.4610 H   0  0  0  0  0
    0.4060   -5.1400    1.2950 H   0  0  0  0  0
   -2.1390   -2.5800   -0.0600 H   0  0  0  0  0
    0.8280   -3.1550   -0.2270 H   0  0  0  0  0
  1  6  2  0  0  0
  1  2  1  0  0  0
  2  3  2  0  0  0
  3  4  1  0  0  0
  4 15  2  0  0  0
  5  4  1  0  0  0
  5 14  2  0  0  0
  6  5  1  0  0  0
  7 22  1  0  0  0
  7 23  1  0  0  0
  8 10  1  0  0  0
  8 24  1  0  0  0
  9  8  2  0  0  0
  9 11  1  0  0  0
  9 25  1  0  0  0
 10 12  2  0  0  0
 10 26  1  0  0  0
 11 20  2  0  0  0
 11 27  1  0  0  0
 12 28  1  0  0  0
 13 19  2  0  0  0
 13 29  1  0  0  0
 14 13  1  0  0  0
 14 30  1  0  0  0
 15 19  1  0  0  0
 15 31  1  0  0  0
 16 21  1  0  0  0
 16 32  1  0  0  0
 16 33  1  0  0  0
 17 16  1  0  0  0
 17 21  1  0  0  0
 17 34  1  0  0  0
 17 35  1  0  0  0
 18  6  1  0  0  0
 18 36  1  0  0  0
 19  7  1  0  0  0
 20  2  1  0  0  0
 20 12  1  0  0  0
 21 18  1  0  0  0
 21 37  1  0  0  0
M  END
$$$$
