ISL
  CCTOOLS-0919241034

 45 45  0  0  1  0  0  0  0  0999 V2000
    5.7620    0.9270   -0.0150 O   0  0  0  0  0
    5.0070    0.0440    0.3160 C   0  0  0  0  0
    5.4310   -1.3960    0.1920 C   0  0  0  0  0
    6.7540   -1.4590   -0.3440 O   0  0  0  0  0
    3.6430    0.3840    0.8590 C   0  0  0  0  0
    3.6020    1.7680    1.2130 O   0  0  0  0  0
    2.5840    0.1000   -0.2080 C   0  0  0  0  0
    2.9130    0.8060   -1.4060 O   0  0  0  0  0
    1.2150    0.5600    0.2960 C   0  0  0  0  0
    0.8860   -0.1460    1.4950 O   0  0  0  0  0
    0.1560    0.2760   -0.7700 C   0  0  0  0  0
   -1.1000    0.8100   -0.3490 O   0  0  0  0  0
   -2.1640    0.5970   -1.2790 C   0  0  0  0  0
   -2.5050   -0.7900   -1.3040 O   0  0  0  0  0
   -2.9130   -1.3140   -0.0390 C   0  0  0  0  0
   -4.1660   -0.5740    0.4380 C   0  0  0  0  0
   -4.5430   -1.0570    1.7290 O   0  0  0  0  0
   -3.8640    0.9250    0.5190 C   0  0  0  0  0
   -5.0480    1.6320    0.8920 O   0  0  0  0  0
   -3.3870    1.4140   -0.8520 C   0  0  0  0  0
   -3.0330    2.7960   -0.7710 O   0  0  0  0  0
   -3.2240   -2.8050   -0.1790 C   0  0  0  0  0
   -2.0270   -3.5120   -0.5130 O   0  0  0  0  0
    5.4140   -1.8660    1.1750 H   0  0  0  0  0
    4.7450   -1.9210   -0.4730 H   0  0  0  0  0
    7.0930   -2.3590   -0.4520 H   0  0  0  0  0
    3.4420   -0.2220    1.7420 H   0  0  0  0  0
    3.7730    2.3680    0.4740 H   0  0  0  0  0
    2.5540   -0.9710   -0.4140 H   0  0  0  0  0
    2.9570    1.7650   -1.2970 H   0  0  0  0  0
    1.2450    1.6300    0.5020 H   0  0  0  0  0
    0.8420   -1.1060    1.3860 H   0  0  0  0  0
    0.4520    0.7420   -1.7100 H   0  0  0  0  0
    0.0630   -0.8010   -0.9120 H   0  0  0  0  0
   -1.8460    0.9110   -2.2730 H   0  0  0  0  0
   -2.1110   -1.1770    0.6870 H   0  0  0  0  0
   -4.9790   -0.7440   -0.2670 H   0  0  0  0  0
   -5.3310   -0.6310    2.0930 H   0  0  0  0  0
   -3.0840    1.1010    1.2600 H   0  0  0  0  0
   -4.9320    2.5900    0.9560 H   0  0  0  0  0
   -4.1850    1.2830   -1.5830 H   0  0  0  0  0
   -2.7220    3.1720   -1.6050 H   0  0  0  0  0
   -3.6190   -3.1850    0.7630 H   0  0  0  0  0
   -3.9620   -2.9500   -0.9680 H   0  0  0  0  0
   -2.1490   -4.4650   -0.6180 H   0  0  0  0  0
  2  5  1  0  0  0
  2  1  2  0  0  0
  3  2  1  0  0  0
  3 24  1  0  0  0
  3 25  1  0  0  0
  4  3  1  0  0  0
  4 26  1  0  0  0
  5  7  1  0  0  0
  5 27  1  0  0  0
  6  5  1  0  0  0
  6 28  1  0  0  0
  7  8  1  0  0  0
  7  9  1  0  0  0
  7 29  1  0  0  0
  8 30  1  0  0  0
  9 11  1  0  0  0
  9 31  1  0  0  0
 10  9  1  0  0  0
 10 32  1  0  0  0
 11 12  1  0  0  0
 11 33  1  0  0  0
 11 34  1  0  0  0
 12 13  1  0  0  0
 13 14  1  0  0  0
 13 35  1  0  0  0
 15 14  1  0  0  0
 15 22  1  0  0  0
 15 36  1  0  0  0
 16 15  1  0  0  0
 16 37  1  0  0  0
 17 16  1  0  0  0
 17 38  1  0  0  0
 18 20  1  0  0  0
 18 16  1  0  0  0
 18 39  1  0  0  0
 19 18  1  0  0  0
 19 40  1  0  0  0
 20 13  1  0  0  0
 20 41  1  0  0  0
 21 20  1  0  0  0
 21 42  1  0  0  0
 22 23  1  0  0  0
 22 43  1  0  0  0
 22 44  1  0  0  0
 23 45  1  0  0  0
M  END
$$$$
