ISP
  CCTOOLS-1004241121

 17 16  0  0  0  0  0  0  0  0999 V2000
   -1.2500   -0.1580    2.3540 C   0  0  0  0  0
   -0.0060    0.1300    1.5120 C   0  0  0  0  0
    1.2400    0.0280    2.3930 C   0  0  0  0  0
    0.0400    0.0110   -0.9260 P   0  0  0  0  0
    0.0810   -0.8210    0.4500 O   0  0  0  0  0
    0.1350   -1.0040   -2.1710 O   0  0  0  0  0
   -1.3380    0.8380   -1.0120 O   0  0  0  0  0
    1.1820    0.9520   -0.9680 O   0  0  0  0  0
   -1.1810   -1.1620    2.7720 H   0  0  0  0  0
   -1.3170    0.5680    3.1640 H   0  0  0  0  0
   -2.1380   -0.0850    1.7270 H   0  0  0  0  0
   -0.0740    1.1350    1.0950 H   0  0  0  0  0
    1.3090   -0.9760    2.8100 H   0  0  0  0  0
    2.1270    0.2340    1.7930 H   0  0  0  0  0
    1.1730    0.7540    3.2030 H   0  0  0  0  0
    0.1080   -0.4650   -2.9740 H   0  0  0  0  0
   -2.0550    0.1900   -0.9820 H   0  0  0  0  0
  1  2  1  0  0  0
  1  9  1  0  0  0
  1 10  1  0  0  0
  1 11  1  0  0  0
  2  3  1  0  0  0
  2  5  1  0  0  0
  2 12  1  0  0  0
  3 13  1  0  0  0
  3 14  1  0  0  0
  3 15  1  0  0  0
  4  5  1  0  0  0
  4  6  1  0  0  0
  4  7  1  0  0  0
  4  8  2  0  0  0
  6 16  1  0  0  0
  7 17  1  0  0  0
M  END
$$$$
