ITE
  CCTOOLS-0919241034

 25 27  0  0  0  0  0  0  0  0999 V2000
   -2.6440   -1.6750   -0.0000 N   0  0  0  0  0
    4.3890   -0.2750   -0.0000 N   0  0  0  0  0
    0.9160    0.4560    0.0000 C   0  0  0  0  0
    3.0130   -0.2600    0.0000 C   0  0  0  0  0
    5.1350    0.9850   -0.0010 C   0  0  0  0  0
    0.9430   -0.9540    0.0000 C   0  0  0  0  0
   -0.2490   -1.6780    0.0000 C   0  0  0  0  0
   -3.7810   -1.0500   -0.0010 C   0  0  0  0  0
   -1.4620   -1.0030    0.0000 C   0  0  0  0  0
   -1.4800    0.4140    0.0000 C   0  0  0  0  0
   -0.2870    1.1330    0.0010 C   0  0  0  0  0
    2.2420    0.8660    0.0000 N   0  0  0  0  0
    2.2490   -1.3260    0.0000 N   0  0  0  0  0
   -2.7850    1.0870    0.0000 C   0  0  0  0  0
   -2.8700    2.3010   -0.0000 O   0  0  0  0  0
   -3.8900    0.3060   -0.0000 N   0  0  0  0  0
    4.8790    1.5600    0.8890 H   0  0  0  0  0
    6.2050    0.7740   -0.0010 H   0  0  0  0  0
   -0.2280   -2.7580   -0.0000 H   0  0  0  0  0
   -4.6880   -1.6370   -0.0010 H   0  0  0  0  0
   -0.3030    2.2130    0.0010 H   0  0  0  0  0
   -4.7690    0.7170   -0.0010 H   0  0  0  0  0
    2.5620    1.7820    0.0000 H   0  0  0  0  0
    4.8650   -1.1210   -0.0000 H   0  0  0  0  0
    4.8780    1.5590   -0.8910 H   0  0  0  0  0
  1  8  2  0  0  0
  2  4  1  0  0  0
  2 24  1  0  0  0
  3 11  1  0  0  0
  4 13  2  0  0  0
  4 12  1  0  0  0
  5  2  1  0  0  0
  5 17  1  0  0  0
  5 18  1  0  0  0
  5 25  1  0  0  0
  6  3  2  0  0  0
  6  7  1  0  0  0
  7  9  2  0  0  0
  7 19  1  0  0  0
  8 16  1  0  0  0
  8 20  1  0  0  0
  9  1  1  0  0  0
  9 10  1  0  0  0
 10 14  1  0  0  0
 11 10  2  0  0  0
 11 21  1  0  0  0
 12  3  1  0  0  0
 12 23  1  0  0  0
 13  6  1  0  0  0
 14 15  2  0  0  0
 14 16  1  0  0  0
 16 22  1  0  0  0
M  END
$$$$
