ITL
  CCTOOLS-0919241034

124127  0  0  1  0  0  0  0  0999 V2000
   -5.6160   -0.3700   -1.2340 C   0  0  0  0  0
   -2.6700   -0.2400   -1.2230 C   0  0  0  0  0
   -3.4770   -0.6970   -2.4830 C   0  0  0  0  0
    6.7810   -5.6470    0.6200 O   0  0  0  0  0
    6.0740   -3.2850   -0.2750 N   0  0  0  0  0
   -2.4400   -0.1220    1.6960 C   0  0  0  0  0
    6.7490    3.1210   -0.8070 N   0  0  0  0  0
   -2.3570   -1.4580   -0.3500 C   0  0  0  0  0
  -15.0970    1.1170   -0.3010 O   0  0  0  0  0
  -14.0020    0.3530   -0.1610 C   0  0  0  0  0
  -14.1120   -0.8450   -0.0460 O   0  0  0  0  0
  -12.6360    0.9890   -0.1460 C   0  0  0  0  0
  -11.5710   -0.0950    0.0250 C   0  0  0  0  0
  -10.1840    0.5500    0.0400 C   0  0  0  0  0
  -10.0510    1.4460    1.2730 C   0  0  0  0  0
   -9.1130   -0.5420    0.0860 C   0  0  0  0  0
   -9.2480   -1.4770   -1.1420 C   0  0  0  0  0
   -7.8820   -1.4310   -1.8800 C   0  0  0  0  0
   -6.9080   -1.0170   -0.7720 C   0  0  0  0  0
   -7.7230    0.0750   -0.0290 C   0  0  0  0  0
   -7.7890    1.3420   -0.8840 C   0  0  0  0  0
   -7.0040    0.3730    1.2720 C   0  0  0  0  0
   -5.6350    0.9740    0.9110 C   0  0  0  0  0
   -4.8200    0.0500    0.0110 C   0  0  0  0  0
   -4.7860   -1.3620   -2.0490 C   0  0  0  0  0
   -3.5120    0.7320   -0.3920 C   0  0  0  0  0
   -3.8200    1.9790   -1.2220 C   0  0  0  0  0
   -2.7360    1.1280    0.8660 C   0  0  0  0  0
   -1.6020   -1.0980    0.8670 C   0  0  0  0  0
   -0.3360   -0.4610    0.4970 N   0  0  0  0  0
    0.7080   -0.4910    1.3490 C   0  0  0  0  0
    0.5990   -1.0440    2.4230 O   0  0  0  0  0
    2.0100    0.1640    0.9680 C   0  0  0  0  0
    3.0210   -0.0120    2.1030 C   0  0  0  0  0
    4.3020    0.7550    1.7680 C   0  0  0  0  0
    5.2580    0.6680    2.9310 C   0  0  0  0  0
    6.3160    0.0990    2.8020 O   0  0  0  0  0
    4.9330    1.2220    4.1090 O   0  0  0  0  0
    4.9270    0.1670    0.5760 N   0  0  0  0  0
    6.0820    0.9640    0.1400 C   0  0  0  0  0
    5.5930    2.2860   -0.4570 C   0  0  0  0  0
    7.4420    2.5920   -1.9900 C   0  0  0  0  0
    8.8520    3.1240   -2.0260 C   0  0  0  0  0
    9.2400    3.8670   -1.1550 O   0  0  0  0  0
    9.6770    2.7720   -3.0240 O   0  0  0  0  0
    6.3450    4.5180   -1.0150 C   0  0  0  0  0
    5.8630    5.1010    0.2880 C   0  0  0  0  0
    5.4410    6.3740    0.3390 O   0  0  0  0  0
    5.8570    4.4230    1.2880 O   0  0  0  0  0
    5.3130   -1.2300    0.8170 C   0  0  0  0  0
    5.5770   -1.9240   -0.5200 C   0  0  0  0  0
    5.0000   -4.1570    0.2180 C   0  0  0  0  0
    5.5890   -5.4630    0.6880 C   0  0  0  0  0
    4.7890   -6.4200    1.1830 O   0  0  0  0  0
    6.6940   -3.8450   -1.4840 C   0  0  0  0  0
    8.0290   -3.1860   -1.7150 C   0  0  0  0  0
    8.7260   -3.4530   -2.8310 O   0  0  0  0  0
    8.4740   -2.4170   -0.8950 O   0  0  0  0  0
   -0.2490   -0.0190   -0.3620 H   0  0  0  0  0
   -5.8410    0.5080   -1.8410 H   0  0  0  0  0
   -1.7390    0.2300   -1.5380 H   0  0  0  0  0
   -3.7020    0.1690   -3.1040 H   0  0  0  0  0
   -2.8840   -1.4100   -3.0550 H   0  0  0  0  0
   -1.8920    0.1530    2.5970 H   0  0  0  0  0
   -3.3810   -0.5970    1.9730 H   0  0  0  0  0
   -3.2890   -1.9280   -0.0360 H   0  0  0  0  0
   -1.7640   -2.1720   -0.9210 H   0  0  0  0  0
  -15.9510    0.6640   -0.3050 H   0  0  0  0  0
  -12.4710    1.5160   -1.0860 H   0  0  0  0  0
  -12.5730    1.6950    0.6830 H   0  0  0  0  0
  -11.7360   -0.6230    0.9650 H   0  0  0  0  0
  -11.6340   -0.8010   -0.8030 H   0  0  0  0  0
  -10.0520    1.1500   -0.8600 H   0  0  0  0  0
  -10.8540    2.1830    1.2750 H   0  0  0  0  0
  -10.1170    0.8360    2.1740 H   0  0  0  0  0
   -9.0890    1.9570    1.2500 H   0  0  0  0  0
   -9.1970   -1.1140    1.0100 H   0  0  0  0  0
   -9.4630   -2.4950   -0.8150 H   0  0  0  0  0
  -10.0410   -1.1200   -1.7990 H   0  0  0  0  0
   -7.6230   -2.4140   -2.2740 H   0  0  0  0  0
   -7.9000   -0.6900   -2.6780 H   0  0  0  0  0
   -6.6950   -1.8630   -0.1180 H   0  0  0  0  0
   -8.3790    2.0990   -0.3670 H   0  0  0  0  0
   -6.7800    1.7200   -1.0510 H   0  0  0  0  0
   -8.2540    1.1110   -1.8420 H   0  0  0  0  0
   -7.5800    1.0880    1.8590 H   0  0  0  0  0
   -6.8670   -0.5480    1.8390 H   0  0  0  0  0
   -5.7870    1.9160    0.3850 H   0  0  0  0  0
   -5.0770    1.1650    1.8280 H   0  0  0  0  0
   -4.5750   -0.8560    0.5650 H   0  0  0  0  0
   -4.5640   -2.2370   -1.4390 H   0  0  0  0  0
   -5.3470   -1.6670   -2.9320 H   0  0  0  0  0
   -4.4220    2.6700   -0.6310 H   0  0  0  0  0
   -2.8870    2.4640   -1.5090 H   0  0  0  0  0
   -4.3710    1.6930   -2.1180 H   0  0  0  0  0
   -3.3320    1.8240    1.4560 H   0  0  0  0  0
   -1.7980    1.6050    0.5790 H   0  0  0  0  0
   -1.4000   -1.9930    1.4550 H   0  0  0  0  0
    2.3980   -0.2990    0.0610 H   0  0  0  0  0
    1.8450    1.2270    0.7910 H   0  0  0  0  0
    2.5980    0.3750    3.0300 H   0  0  0  0  0
    3.2520   -1.0710    2.2230 H   0  0  0  0  0
    4.0610    1.7990    1.5740 H   0  0  0  0  0
    5.5780    1.1400    4.8250 H   0  0  0  0  0
    6.7270    1.1680    0.9950 H   0  0  0  0  0
    6.6420    0.4100   -0.6140 H   0  0  0  0  0
    4.9760    2.8080    0.2740 H   0  0  0  0  0
    5.0050    2.0850   -1.3520 H   0  0  0  0  0
    7.4660    1.5040   -1.9400 H   0  0  0  0  0
    6.9130    2.9040   -2.8900 H   0  0  0  0  0
   10.5710    3.1390   -3.0050 H   0  0  0  0  0
    7.1970    5.0930   -1.3770 H   0  0  0  0  0
    5.5410    4.5580   -1.7500 H   0  0  0  0  0
    5.1410    6.7040    1.1970 H   0  0  0  0  0
    6.2170   -1.2570    1.4260 H   0  0  0  0  0
    4.5070   -1.7440    1.3410 H   0  0  0  0  0
    6.3220   -1.3610   -1.0810 H   0  0  0  0  0
    4.6510   -1.9740   -1.0930 H   0  0  0  0  0
    4.4880   -3.6700    1.0480 H   0  0  0  0  0
    4.2890   -4.3480   -0.5860 H   0  0  0  0  0
    5.2120   -7.2400    1.4720 H   0  0  0  0  0
    6.8350   -4.9180   -1.3560 H   0  0  0  0  0
    6.0460   -3.6630   -2.3410 H   0  0  0  0  0
    9.5770   -3.0070   -2.9340 H   0  0  0  0  0
  1 25  1  0  0  0
  1 60  1  0  0  0
  2  8  1  0  0  0
  2  3  1  0  0  0
  2 61  1  0  0  0
  3 62  1  0  0  0
  3 63  1  0  0  0
  4 53  2  0  0  0
  5 55  1  0  0  0
  5 52  1  0  0  0
  6 29  1  0  0  0
  6 64  1  0  0  0
  6 65  1  0  0  0
  7 46  1  0  0  0
  8 66  1  0  0  0
  8 67  1  0  0  0
  9 68  1  0  0  0
 10  9  1  0  0  0
 10 12  1  0  0  0
 11 10  2  0  0  0
 12 13  1  0  0  0
 12 69  1  0  0  0
 12 70  1  0  0  0
 13 14  1  0  0  0
 13 71  1  0  0  0
 13 72  1  0  0  0
 14 16  1  0  0  0
 14 73  1  0  0  0
 15 14  1  0  0  0
 15 74  1  0  0  0
 15 75  1  0  0  0
 15 76  1  0  0  0
 16 20  1  0  0  0
 16 17  1  0  0  0
 16 77  1  0  0  0
 17 18  1  0  0  0
 17 78  1  0  0  0
 17 79  1  0  0  0
 18 80  1  0  0  0
 18 81  1  0  0  0
 19  1  1  0  0  0
 19 18  1  0  0  0
 19 82  1  0  0  0
 20 19  1  0  0  0
 21 20  1  0  0  0
 21 83  1  0  0  0
 21 84  1  0  0  0
 21 85  1  0  0  0
 22 20  1  0  0  0
 22 23  1  0  0  0
 22 86  1  0  0  0
 22 87  1  0  0  0
 23 24  1  0  0  0
 23 88  1  0  0  0
 23 89  1  0  0  0
 24  1  1  0  0  0
 24 26  1  0  0  0
 24 90  1  0  0  0
 25  3  1  0  0  0
 25 91  1  0  0  0
 25 92  1  0  0  0
 26  2  1  0  0  0
 27 26  1  0  0  0
 27 93  1  0  0  0
 27 94  1  0  0  0
 27 95  1  0  0  0
 28  6  1  0  0  0
 28 26  1  0  0  0
 28 96  1  0  0  0
 28 97  1  0  0  0
 29  8  1  0  0  0
 29 30  1  0  0  0
 29 98  1  0  0  0
 30 59  1  0  0  0
 31 30  1  0  0  0
 31 33  1  0  0  0
 32 31  2  0  0  0
 33 34  1  0  0  0
 33 99  1  0  0  0
 33100  1  0  0  0
 34 35  1  0  0  0
 34101  1  0  0  0
 34102  1  0  0  0
 35 36  1  0  0  0
 35 39  1  0  0  0
 35103  1  0  0  0
 36 38  1  0  0  0
 37 36  2  0  0  0
 38104  1  0  0  0
 39 50  1  0  0  0
 40 39  1  0  0  0
 40 41  1  0  0  0
 40105  1  0  0  0
 40106  1  0  0  0
 41  7  1  0  0  0
 41107  1  0  0  0
 41108  1  0  0  0
 42  7  1  0  0  0
 42109  1  0  0  0
 42110  1  0  0  0
 43 42  1  0  0  0
 43 45  1  0  0  0
 44 43  2  0  0  0
 45111  1  0  0  0
 46 47  1  0  0  0
 46112  1  0  0  0
 46113  1  0  0  0
 47 48  1  0  0  0
 48114  1  0  0  0
 49 47  2  0  0  0
 50 51  1  0  0  0
 50115  1  0  0  0
 50116  1  0  0  0
 51  5  1  0  0  0
 51117  1  0  0  0
 51118  1  0  0  0
 52 53  1  0  0  0
 52119  1  0  0  0
 52120  1  0  0  0
 53 54  1  0  0  0
 54121  1  0  0  0
 55 56  1  0  0  0
 55122  1  0  0  0
 55123  1  0  0  0
 56 58  2  0  0  0
 56 57  1  0  0  0
 57124  1  0  0  0
M  END
$$$$
