ITT
  CCTOOLS-0919241034

 46 48  0  0  1  0  0  0  0  0999 V2000
   -6.2240   -1.8170    0.0210 P   0  0  0  0  0
   -5.4170   -2.1300   -1.1790 O   0  0  0  0  0
   -6.7700   -3.1850    0.6720 O   0  0  0  0  0
   -7.4700   -0.8870   -0.3970 O   0  0  0  0  0
   -4.4880    0.0800    0.2810 P   0  0  0  0  0
   -4.0410   -0.4800   -1.0140 O   0  0  0  0  0
   -5.4340    1.3550    0.0170 O   0  0  0  0  0
   -5.3110   -1.0400    1.0950 O   0  0  0  0  0
   -2.2280    1.3270    0.1370 P   0  0  0  0  0
   -2.2120    0.6470   -1.1770 O   0  0  0  0  0
   -2.7600    2.8360   -0.0460 O   0  0  0  0  0
   -3.2040    0.5330    1.1410 O   0  0  0  0  0
   -0.7380    1.3540    0.7460 O   0  0  0  0  0
    0.1000    1.9640   -0.2380 C   0  0  0  0  0
    1.5380    2.0200    0.2800 C   0  0  0  0  0
    2.0790    0.6850    0.4110 O   0  0  0  0  0
    2.4600    2.7180   -0.7440 C   0  0  0  0  0
    2.6620    4.0860   -0.3850 O   0  0  0  0  0
    3.7870    1.9330   -0.6560 C   0  0  0  0  0
    4.8510    2.7920   -0.2430 O   0  0  0  0  0
    3.5140    0.8520    0.4130 C   0  0  0  0  0
    4.1760   -0.4030    0.0510 N   0  0  0  0  0
    3.6120   -1.4490   -0.6160 C   0  0  0  0  0
    4.4850   -2.4020   -0.7710 N   0  0  0  0  0
    5.6630   -2.0290   -0.2140 C   0  0  0  0  0
    6.9240   -2.6280   -0.0790 C   0  0  0  0  0
    7.1590   -3.8670   -0.5740 O   0  0  0  0  0
    7.8810   -1.9530    0.5450 N   0  0  0  0  0
    7.6620   -0.7450    1.0310 C   0  0  0  0  0
    6.4960   -0.1430    0.9280 N   0  0  0  0  0
    5.4800   -0.7390    0.3150 C   0  0  0  0  0
   -7.3110   -3.6190   -0.0020 H   0  0  0  0  0
   -7.9690   -0.7070    0.4120 H   0  0  0  0  0
   -5.7020    1.6890    0.8840 H   0  0  0  0  0
   -2.7540    3.2430    0.8310 H   0  0  0  0  0
   -0.2540    2.9750   -0.4400 H   0  0  0  0  0
    0.0670    1.3780   -1.1570 H   0  0  0  0  0
    1.5750    2.5400    1.2380 H   0  0  0  0  0
    2.0390    2.6470   -1.7470 H   0  0  0  0  0
    3.2670    4.4610   -1.0400 H   0  0  0  0  0
    4.0220    1.4710   -1.6150 H   0  0  0  0  0
    4.9340    3.4790   -0.9180 H   0  0  0  0  0
    3.8540    1.1910    1.3910 H   0  0  0  0  0
    2.5900   -1.4830   -0.9650 H   0  0  0  0  0
    7.4710   -3.7500   -1.4820 H   0  0  0  0  0
    8.4700   -0.2320    1.5320 H   0  0  0  0  0
  1  2  2  0  0  0
  1  3  1  0  0  0
  1  4  1  0  0  0
  1  8  1  0  0  0
  3 32  1  0  0  0
  4 33  1  0  0  0
  5  6  2  0  0  0
  5  7  1  0  0  0
  5  8  1  0  0  0
  5 12  1  0  0  0
  7 34  1  0  0  0
  9 10  2  0  0  0
  9 11  1  0  0  0
  9 12  1  0  0  0
  9 13  1  0  0  0
 11 35  1  0  0  0
 13 14  1  0  0  0
 14 15  1  0  0  0
 14 36  1  0  0  0
 14 37  1  0  0  0
 15 16  1  0  0  0
 15 17  1  0  0  0
 15 38  1  0  0  0
 16 21  1  0  0  0
 17 18  1  0  0  0
 17 19  1  0  0  0
 17 39  1  0  0  0
 18 40  1  0  0  0
 19 20  1  0  0  0
 19 21  1  0  0  0
 19 41  1  0  0  0
 20 42  1  0  0  0
 21 22  1  0  0  0
 21 43  1  0  0  0
 22 23  1  0  0  0
 22 31  1  0  0  0
 23 24  2  0  0  0
 23 44  1  0  0  0
 24 25  1  0  0  0
 25 26  1  0  0  0
 25 31  2  0  0  0
 26 27  1  0  0  0
 26 28  2  0  0  0
 27 45  1  0  0  0
 28 29  1  0  0  0
 29 30  2  0  0  0
 29 46  1  0  0  0
 30 31  1  0  0  0
M  END
$$$$
