J35
  CCTOOLS-0919241035

 54 55  0  0  1  0  0  0  0  0999 V2000
    5.5330    1.4750    0.1590 O   0  0  0  0  0
    6.1740    0.3190    0.3910 C   0  0  0  0  0
    7.3220    0.3300    0.7690 O   0  0  0  0  0
    5.4640   -0.9930    0.1800 C   0  0  0  0  0
    6.4120   -2.1460    0.5130 C   0  0  0  0  0
    7.5760   -2.1520   -0.4800 C   0  0  0  0  0
    8.5250   -3.3060   -0.1460 C   0  0  0  0  0
    4.2370   -1.0610    1.0920 C   0  0  0  0  0
    3.2470   -0.0010    0.6830 C   0  0  0  0  0
    3.3150    1.2600    1.2450 C   0  0  0  0  0
    2.4090    2.2340    0.8720 C   0  0  0  0  0
    1.4310    1.9460   -0.0680 C   0  0  0  0  0
    0.5380    2.9020   -0.4370 O   0  0  0  0  0
    0.6660    4.1830    0.1840 C   0  0  0  0  0
    2.2760   -0.2890   -0.2580 C   0  0  0  0  0
    1.3650    0.6790   -0.6310 C   0  0  0  0  0
    0.3030    0.3620   -1.6520 C   0  0  0  0  0
   -0.9890    0.2020   -0.9800 N   0  0  0  0  0
   -2.0920   -0.0870   -1.6990 C   0  0  0  0  0
   -2.0140   -0.2150   -2.9050 O   0  0  0  0  0
   -3.3950   -0.2490   -1.0200 C   0  0  0  0  0
   -3.4880   -0.0980    0.3640 C   0  0  0  0  0
   -4.7070   -0.2510    0.9910 C   0  0  0  0  0
   -4.5390   -0.5490   -1.7620 C   0  0  0  0  0
   -5.7520   -0.6980   -1.1220 C   0  0  0  0  0
   -5.8370   -0.5530    0.2510 C   0  0  0  0  0
   -7.1650   -0.7180    0.9420 C   0  0  0  0  0
   -7.8180    0.5180    1.0000 F   0  0  0  0  0
   -7.9520   -1.6290    0.2290 F   0  0  0  0  0
   -6.9590   -1.1970    2.2410 F   0  0  0  0  0
    6.0300    2.2910    0.3080 H   0  0  0  0  0
    5.1480   -1.0710   -0.8600 H   0  0  0  0  0
    6.7980   -2.0190    1.5250 H   0  0  0  0  0
    5.8720   -3.0910    0.4460 H   0  0  0  0  0
    7.1910   -2.2800   -1.4910 H   0  0  0  0  0
    8.1160   -1.2080   -0.4130 H   0  0  0  0  0
    8.9100   -3.1780    0.8650 H   0  0  0  0  0
    7.9850   -4.2510   -0.2130 H   0  0  0  0  0
    9.3540   -3.3100   -0.8540 H   0  0  0  0  0
    3.7740   -2.0440    1.0050 H   0  0  0  0  0
    4.5430   -0.8940    2.1250 H   0  0  0  0  0
    4.0770    1.4840    1.9770 H   0  0  0  0  0
    2.4620    3.2190    1.3120 H   0  0  0  0  0
    0.5520    4.0770    1.2630 H   0  0  0  0  0
    1.6490    4.5980   -0.0390 H   0  0  0  0  0
   -0.1050    4.8510   -0.1990 H   0  0  0  0  0
    2.2280   -1.2740   -0.6990 H   0  0  0  0  0
    0.2380    1.1770   -2.3740 H   0  0  0  0  0
    0.5610   -0.5620   -2.1690 H   0  0  0  0  0
   -1.0500    0.3030   -0.0170 H   0  0  0  0  0
   -2.6080    0.1380    0.9430 H   0  0  0  0  0
   -4.7810   -0.1340    2.0620 H   0  0  0  0  0
   -4.4740   -0.6620   -2.8340 H   0  0  0  0  0
   -6.6380   -0.9300   -1.6950 H   0  0  0  0  0
  1  2  1  0  0  0
  1 31  1  0  0  0
  2  4  1  0  0  0
  3  2  2  0  0  0
  4  5  1  0  0  0
  4  8  1  0  0  0
  4 32  1  0  0  0
  5 33  1  0  0  0
  5 34  1  0  0  0
  6  5  1  0  0  0
  6 35  1  0  0  0
  6 36  1  0  0  0
  7  6  1  0  0  0
  7 37  1  0  0  0
  7 38  1  0  0  0
  7 39  1  0  0  0
  8  9  1  0  0  0
  8 40  1  0  0  0
  8 41  1  0  0  0
  9 15  1  0  0  0
 10  9  2  0  0  0
 10 11  1  0  0  0
 10 42  1  0  0  0
 11 12  2  0  0  0
 11 43  1  0  0  0
 12 16  1  0  0  0
 12 13  1  0  0  0
 14 13  1  0  0  0
 14 44  1  0  0  0
 14 45  1  0  0  0
 14 46  1  0  0  0
 15 16  2  0  0  0
 15 47  1  0  0  0
 16 17  1  0  0  0
 17 18  1  0  0  0
 17 48  1  0  0  0
 17 49  1  0  0  0
 18 19  1  0  0  0
 18 50  1  0  0  0
 19 20  2  0  0  0
 19 21  1  0  0  0
 21 24  1  0  0  0
 22 21  2  0  0  0
 22 23  1  0  0  0
 22 51  1  0  0  0
 23 26  2  0  0  0
 23 52  1  0  0  0
 24 25  2  0  0  0
 24 53  1  0  0  0
 25 54  1  0  0  0
 26 25  1  0  0  0
 26 27  1  0  0  0
 27 28  1  0  0  0
 27 29  1  0  0  0
 30 27  1  0  0  0
M  END
$$$$
