J43
  CCTOOLS-0919241036

 33 34  0  0  0  0  0  0  0  0999 V2000
    3.4660   -1.0510    0.0240 N   0  0  0  0  0
    2.1930   -1.4230    0.1120 C   0  0  0  0  0
    1.2010   -0.5440    0.1370 N   0  0  0  0  0
    1.4440    0.7590    0.0720 C   0  0  0  0  0
    2.7870    1.1980   -0.0230 C   0  0  0  0  0
    3.8010    0.2250   -0.0450 C   0  0  0  0  0
    0.4090    1.6690    0.0980 N   0  0  0  0  0
   -0.9150    1.2210    0.0740 C   0  0  0  0  0
   -1.9020    1.9320    0.7460 C   0  0  0  0  0
   -3.2090    1.4870    0.7210 C   0  0  0  0  0
   -3.5360    0.3350    0.0290 C   0  0  0  0  0
   -2.5560   -0.3740   -0.6410 C   0  0  0  0  0
   -1.2480    0.0680   -0.6250 C   0  0  0  0  0
   -5.2050   -0.2290    0.0010 S   0  0  0  0  0
   -5.1520   -1.6240   -0.2680 O   0  0  0  0  0
   -5.8330    0.3170    1.1520 O   0  0  0  0  0
   -5.9380    0.4720   -1.3090 N   0  0  0  0  0
    3.1090    2.6220   -0.0970 C   0  0  0  0  0
    4.2670    2.9780   -0.1780 O   0  0  0  0  0
    5.4680    0.6930   -0.1600 CL  0  0  0  0  0
    1.8120   -3.1410    0.2010 S   0  0  0  0  0
    3.4820   -3.8370    0.1290 C   0  0  0  0  0
    0.5990    2.6190    0.1310 H   0  0  0  0  0
   -1.6470    2.8310    1.2870 H   0  0  0  0  0
   -3.9770    2.0390    1.2430 H   0  0  0  0  0
   -2.8150   -1.2740   -1.1800 H   0  0  0  0  0
   -0.4840   -0.4840   -1.1520 H   0  0  0  0  0
   -5.4350    1.0690   -1.8840 H   0  0  0  0  0
   -6.8700    0.2850   -1.5000 H   0  0  0  0  0
    2.3180    3.3560   -0.0790 H   0  0  0  0  0
    3.4240   -4.9250    0.1740 H   0  0  0  0  0
    3.9610   -3.5370   -0.8030 H   0  0  0  0  0
    4.0650   -3.4690    0.9730 H   0  0  0  0  0
  1  2  2  0  0  0
  1  6  1  0  0  0
  2  3  1  0  0  0
  2 21  1  0  0  0
  3  4  2  0  0  0
  4  5  1  0  0  0
  4  7  1  0  0  0
  5  6  2  0  0  0
  5 18  1  0  0  0
  6 20  1  0  0  0
  7  8  1  0  0  0
  7 23  1  0  0  0
  8  9  2  0  0  0
  8 13  1  0  0  0
  9 10  1  0  0  0
  9 24  1  0  0  0
 10 11  2  0  0  0
 10 25  1  0  0  0
 11 12  1  0  0  0
 11 14  1  0  0  0
 12 13  2  0  0  0
 12 26  1  0  0  0
 13 27  1  0  0  0
 14 15  2  0  0  0
 14 16  2  0  0  0
 14 17  1  0  0  0
 17 28  1  0  0  0
 17 29  1  0  0  0
 18 19  2  0  0  0
 18 30  1  0  0  0
 21 22  1  0  0  0
 22 31  1  0  0  0
 22 32  1  0  0  0
 22 33  1  0  0  0
M  END
$$$$
