J53
  CCTOOLS-0919241036

 81 85  0  0  1  0  0  0  0  0999 V2000
   -6.0210    2.1030   -2.3030 O   0  0  0  0  0
   -5.1040    2.7030   -1.7930 C   0  0  0  0  0
   -4.0190    3.0140   -2.5190 O   0  0  0  0  0
   -5.1820    3.1070   -0.3430 C   0  0  0  0  0
   -5.9630    4.4180   -0.2210 C   0  0  0  0  0
   -5.9100    4.9090    1.2270 C   0  0  0  0  0
   -5.8950    2.0130    0.4540 C   0  0  0  0  0
   -5.0880    0.7420    0.3940 C   0  0  0  0  0
   -5.3620   -0.2050   -0.5770 C   0  0  0  0  0
   -4.6230   -1.3710   -0.6340 C   0  0  0  0  0
   -3.6060   -1.5920    0.2830 C   0  0  0  0  0
   -2.8780   -2.7380    0.2290 O   0  0  0  0  0
   -3.2140   -3.6720   -0.7990 C   0  0  0  0  0
   -2.2940   -4.8910   -0.7020 C   0  0  0  0  0
   -2.6540   -5.8910   -1.8020 C   0  0  0  0  0
   -1.7340   -7.1090   -1.7050 C   0  0  0  0  0
   -4.0720    0.5260    1.3060 C   0  0  0  0  0
   -3.3330   -0.6410    1.2560 C   0  0  0  0  0
   -2.2300   -0.8780    2.2540 C   0  0  0  0  0
   -0.9380   -0.5650    1.6370 N   0  0  0  0  0
    0.1990   -0.7040    2.3470 C   0  0  0  0  0
    0.1530   -1.0890    3.4990 O   0  0  0  0  0
    1.5020   -0.3870    1.7250 C   0  0  0  0  0
    1.5580    0.0610    0.4040 C   0  0  0  0  0
    2.7770    0.3550   -0.1700 C   0  0  0  0  0
    3.9430    0.2060    0.5600 C   0  0  0  0  0
    3.8950   -0.2390    1.8690 C   0  0  0  0  0
    2.6820   -0.5300    2.4570 C   0  0  0  0  0
    5.2720    0.5290   -0.0750 C   0  0  0  0  0
    6.3930    0.2810    0.9360 C   0  0  0  0  0
    7.7420    0.6090    0.2920 C   0  0  0  0  0
    7.9530   -0.2840   -0.9320 C   0  0  0  0  0
    7.7580    2.0770   -0.1380 C   0  0  0  0  0
    6.6370    2.3240   -1.1490 C   0  0  0  0  0
    5.2880    1.9970   -0.5050 C   0  0  0  0  0
    6.8480    1.4310   -2.3740 C   0  0  0  0  0
    6.8310   -0.0370   -1.9430 C   0  0  0  0  0
    5.4830   -0.3640   -1.2990 C   0  0  0  0  0
   -4.0170    2.7370   -3.4460 H   0  0  0  0  0
   -4.1750    3.2460    0.0500 H   0  0  0  0  0
   -5.5180    5.1680   -0.8750 H   0  0  0  0  0
   -7.0000    4.2510   -0.5110 H   0  0  0  0  0
   -6.3690    5.8950    1.2930 H   0  0  0  0  0
   -6.4530    4.2120    1.8670 H   0  0  0  0  0
   -4.8720    4.9680    1.5540 H   0  0  0  0  0
   -5.9990    2.3290    1.4920 H   0  0  0  0  0
   -6.8820    1.8370    0.0270 H   0  0  0  0  0
   -6.1530   -0.0320   -1.2910 H   0  0  0  0  0
   -4.8380   -2.1100   -1.3920 H   0  0  0  0  0
   -4.2500   -3.9890   -0.6780 H   0  0  0  0  0
   -3.0900   -3.2000   -1.7730 H   0  0  0  0  0
   -1.2580   -4.5740   -0.8230 H   0  0  0  0  0
   -2.4180   -5.3630    0.2730 H   0  0  0  0  0
   -3.6900   -6.2070   -1.6810 H   0  0  0  0  0
   -2.5300   -5.4190   -2.7770 H   0  0  0  0  0
   -1.9900   -7.8220   -2.4890 H   0  0  0  0  0
   -0.6980   -6.7930   -1.8260 H   0  0  0  0  0
   -1.8580   -7.5810   -0.7310 H   0  0  0  0  0
   -3.8570    1.2680    2.0600 H   0  0  0  0  0
   -2.3820   -0.2390    3.1230 H   0  0  0  0  0
   -2.2390   -1.9230    2.5650 H   0  0  0  0  0
   -0.9010   -0.2570    0.7180 H   0  0  0  0  0
    0.6490    0.1770   -0.1670 H   0  0  0  0  0
    2.8220    0.7020   -1.1920 H   0  0  0  0  0
    4.8090   -0.3530    2.4330 H   0  0  0  0  0
    2.6450   -0.8720    3.4810 H   0  0  0  0  0
    6.2430    0.9170    1.8090 H   0  0  0  0  0
    6.3810   -0.7650    1.2430 H   0  0  0  0  0
    8.5410    0.4330    1.0130 H   0  0  0  0  0
    8.9140   -0.0510   -1.3910 H   0  0  0  0  0
    7.9410   -1.3300   -0.6250 H   0  0  0  0  0
    7.6080    2.7130    0.7340 H   0  0  0  0  0
    8.7190    2.3100   -0.5970 H   0  0  0  0  0
    6.6480    3.3700   -1.4560 H   0  0  0  0  0
    4.4890    2.1730   -1.2260 H   0  0  0  0  0
    5.1380    2.6330    0.3670 H   0  0  0  0  0
    6.0490    1.6070   -3.0940 H   0  0  0  0  0
    7.8090    1.6640   -2.8320 H   0  0  0  0  0
    6.9820   -0.6730   -2.8150 H   0  0  0  0  0
    5.4710   -1.4100   -0.9920 H   0  0  0  0  0
    4.6840   -0.1880   -2.0190 H   0  0  0  0  0
  1  2  2  0  0  0
  2  3  1  0  0  0
  2  4  1  0  0  0
  3 39  1  0  0  0
  4  7  1  0  0  0
  4 40  1  0  0  0
  5  4  1  0  0  0
  5 41  1  0  0  0
  5 42  1  0  0  0
  6  5  1  0  0  0
  6 43  1  0  0  0
  6 44  1  0  0  0
  6 45  1  0  0  0
  7  8  1  0  0  0
  7 46  1  0  0  0
  7 47  1  0  0  0
  8 17  2  0  0  0
  9 10  2  0  0  0
  9  8  1  0  0  0
  9 48  1  0  0  0
 10 11  1  0  0  0
 10 49  1  0  0  0
 11 12  1  0  0  0
 11 18  2  0  0  0
 13 12  1  0  0  0
 13 14  1  0  0  0
 13 50  1  0  0  0
 13 51  1  0  0  0
 14 52  1  0  0  0
 14 53  1  0  0  0
 15 14  1  0  0  0
 15 16  1  0  0  0
 15 54  1  0  0  0
 15 55  1  0  0  0
 16 56  1  0  0  0
 16 57  1  0  0  0
 16 58  1  0  0  0
 17 18  1  0  0  0
 17 59  1  0  0  0
 18 19  1  0  0  0
 19 20  1  0  0  0
 19 60  1  0  0  0
 19 61  1  0  0  0
 20 21  1  0  0  0
 20 62  1  0  0  0
 21 22  2  0  0  0
 21 23  1  0  0  0
 23 28  2  0  0  0
 23 24  1  0  0  0
 24 25  2  0  0  0
 24 63  1  0  0  0
 25 26  1  0  0  0
 25 64  1  0  0  0
 26 29  1  0  0  0
 27 26  2  0  0  0
 27 65  1  0  0  0
 28 27  1  0  0  0
 28 66  1  0  0  0
 29 30  1  0  0  0
 29 35  1  0  0  0
 30 31  1  0  0  0
 30 67  1  0  0  0
 30 68  1  0  0  0
 31 33  1  0  0  0
 31 69  1  0  0  0
 32 31  1  0  0  0
 32 70  1  0  0  0
 32 71  1  0  0  0
 33 72  1  0  0  0
 33 73  1  0  0  0
 34 33  1  0  0  0
 34 74  1  0  0  0
 35 34  1  0  0  0
 35 75  1  0  0  0
 35 76  1  0  0  0
 36 34  1  0  0  0
 36 77  1  0  0  0
 36 78  1  0  0  0
 37 32  1  0  0  0
 37 36  1  0  0  0
 37 79  1  0  0  0
 38 37  1  0  0  0
 38 29  1  0  0  0
 38 80  1  0  0  0
 38 81  1  0  0  0
M  END
$$$$
