J5L
  CCTOOLS-0919241036

 91 95  0  0  1  0  0  0  0  0999 V2000
   -7.5350    5.7500    0.3710 C   0  0  0  0  0
   11.4830   -0.3050    0.2620 C   0  0  0  0  0
    4.8420   -3.3560    2.4750 C   0  0  0  0  0
    3.8180   -2.9750    0.2290 C   0  0  0  0  0
   -8.0950    3.1880   -0.2520 O   0  0  0  0  0
   -2.6930   -1.9850   -1.2100 O   0  0  0  0  0
    4.1170    1.1990    2.7500 O   0  0  0  0  0
    2.7830    2.0950    0.8350 O   0  0  0  0  0
    0.3690    1.0210    1.1920 O   0  0  0  0  0
   -3.1230   -0.7640   -4.5600 C   0  0  0  0  0
   -3.5460    0.0770   -3.5480 C   0  0  0  0  0
   -1.8270   -1.2470   -4.5600 C   0  0  0  0  0
   -2.6740    0.4360   -2.5370 C   0  0  0  0  0
   -0.9550   -0.8880   -3.5490 C   0  0  0  0  0
    5.0270    1.5410   -0.9230 C   0  0  0  0  0
    6.1540    1.5300   -1.7230 C   0  0  0  0  0
    6.3060    0.6810    0.9150 C   0  0  0  0  0
   -6.4450    2.1490    1.0790 C   0  0  0  0  0
   -7.0960   -0.7830    2.2520 C   0  0  0  0  0
   -5.2520   -3.4060    0.3330 C   0  0  0  0  0
   -0.4280    0.3470   -1.4360 C   0  0  0  0  0
    3.2740   -1.4430    2.1260 C   0  0  0  0  0
    1.9190   -0.5330    0.1820 C   0  0  0  0  0
    8.6430    0.9670   -1.7480 N   0  0  0  0  0
   -6.8210    4.5880    0.9050 N   0  0  0  0  0
   10.7290    0.2200   -0.8790 N   0  0  0  0  0
   -1.8660   -0.5890    0.3060 N   0  0  0  0  0
   -7.0070    0.9530    0.5350 O   0  0  0  0  0
   -7.0570   -2.2190    2.1130 O   0  0  0  0  0
   -6.6620   -3.7110    0.3500 O   0  0  0  0  0
   -4.1110   -1.2240    0.3180 O   0  0  0  0  0
    8.7260    0.2990    0.3600 O   0  0  0  0  0
   -7.1800    3.3450    0.5290 C   0  0  0  0  0
   -2.8840   -1.2910   -0.2310 C   0  0  0  0  0
   -1.3790   -0.0460   -2.5380 C   0  0  0  0  0
    5.1040    1.1170    0.3920 C   0  0  0  0  0
    9.4560    0.4750   -0.7580 C   0  0  0  0  0
    7.3630    1.0930   -1.2050 C   0  0  0  0  0
    7.4420    0.6660    0.1200 C   0  0  0  0  0
    4.3710   -2.2920    1.4810 C   0  0  0  0  0
    0.5210   -0.3360    0.7710 C   0  0  0  0  0
   -0.5300   -0.6620   -0.2910 C   0  0  0  0  0
   -6.3790   -0.2450    0.9940 C   0  0  0  0  0
   -5.1590   -2.0060   -0.3130 C   0  0  0  0  0
    2.9230   -0.3370    1.2310 N   0  0  0  0  0
   -7.3200   -2.4810    0.7190 C   0  0  0  0  0
   -6.5410   -1.3730   -0.0460 C   0  0  0  0  0
    3.6620    1.1350    1.4050 S   0  0  0  0  0
   -7.4420    5.7660   -0.7150 H   0  0  0  0  0
   -8.5890    5.6860    0.6440 H   0  0  0  0  0
   -7.1070    6.6620    0.7860 H   0  0  0  0  0
   12.5230   -0.4540   -0.0280 H   0  0  0  0  0
   11.4340    0.4060    1.0870 H   0  0  0  0  0
   11.0530   -1.2560    0.5750 H   0  0  0  0  0
    5.6240   -3.9610    2.0160 H   0  0  0  0  0
    5.2360   -2.8690    3.3680 H   0  0  0  0  0
    4.0030   -3.9940    2.7500 H   0  0  0  0  0
    2.8960   -3.5010    0.4780 H   0  0  0  0  0
    3.6120   -2.2240   -0.5340 H   0  0  0  0  0
    4.5510   -3.6870   -0.1510 H   0  0  0  0  0
    0.4720    1.6680    0.4800 H   0  0  0  0  0
   -3.8050   -1.0480   -5.3470 H   0  0  0  0  0
   -4.5580    0.4550   -3.5480 H   0  0  0  0  0
   -1.4960   -1.9050   -5.3500 H   0  0  0  0  0
   -3.0050    1.0940   -1.7470 H   0  0  0  0  0
    0.0570   -1.2650   -3.5500 H   0  0  0  0  0
    4.0850    1.8850   -1.3240 H   0  0  0  0  0
    6.0920    1.8600   -2.7490 H   0  0  0  0  0
    6.3610    0.3520    1.9420 H   0  0  0  0  0
   -6.5390    2.1330    2.1650 H   0  0  0  0  0
   -5.3920    2.2130    0.8060 H   0  0  0  0  0
   -8.1280   -0.4330    2.2790 H   0  0  0  0  0
   -6.5650   -0.4750    3.1520 H   0  0  0  0  0
   -4.8560   -3.3820    1.3480 H   0  0  0  0  0
   -4.7130   -4.1380   -0.2680 H   0  0  0  0  0
    0.5910    0.3560   -1.8230 H   0  0  0  0  0
   -0.6870    1.3400   -1.0700 H   0  0  0  0  0
    2.3930   -2.0600    2.3030 H   0  0  0  0  0
    3.6330   -1.0430    3.0740 H   0  0  0  0  0
    2.0050   -1.5430   -0.2190 H   0  0  0  0  0
    2.0820    0.1900   -0.6170 H   0  0  0  0  0
    8.9080    1.1850   -2.6550 H   0  0  0  0  0
   -6.0890    4.7140    1.5300 H   0  0  0  0  0
   -2.0190   -0.0350    1.0880 H   0  0  0  0  0
    5.2100   -1.6540    1.2070 H   0  0  0  0  0
    0.3910   -0.9980    1.6270 H   0  0  0  0  0
   -0.3590   -1.6670   -0.6750 H   0  0  0  0  0
   -5.3240   -0.0660    1.2040 H   0  0  0  0  0
   -4.9770   -2.0920   -1.3850 H   0  0  0  0  0
   -8.3860   -2.4930    0.4900 H   0  0  0  0  0
   -7.0380   -1.0400   -0.9580 H   0  0  0  0  0
  1 25  1  0  0  0
  1 49  1  0  0  0
  1 50  1  0  0  0
  1 51  1  0  0  0
  2 26  1  0  0  0
  2 52  1  0  0  0
  2 53  1  0  0  0
  2 54  1  0  0  0
  3 40  1  0  0  0
  3 55  1  0  0  0
  3 56  1  0  0  0
  3 57  1  0  0  0
  4 40  1  0  0  0
  4 58  1  0  0  0
  4 59  1  0  0  0
  4 60  1  0  0  0
  5 33  2  0  0  0
  6 34  2  0  0  0
  7 48  2  0  0  0
  8 48  2  0  0  0
  9 41  1  0  0  0
  9 61  1  0  0  0
 10 11  2  0  0  0
 10 12  1  0  0  0
 10 62  1  0  0  0
 11 13  1  0  0  0
 11 63  1  0  0  0
 12 14  2  0  0  0
 12 64  1  0  0  0
 13 35  2  0  0  0
 13 65  1  0  0  0
 14 35  1  0  0  0
 14 66  1  0  0  0
 15 16  2  0  0  0
 15 36  1  0  0  0
 15 67  1  0  0  0
 16 38  1  0  0  0
 16 68  1  0  0  0
 17 36  2  0  0  0
 17 39  1  0  0  0
 17 69  1  0  0  0
 18 28  1  0  0  0
 18 33  1  0  0  0
 18 70  1  0  0  0
 18 71  1  0  0  0
 19 29  1  0  0  0
 19 43  1  0  0  0
 19 72  1  0  0  0
 19 73  1  0  0  0
 20 30  1  0  0  0
 20 44  1  0  0  0
 20 74  1  0  0  0
 20 75  1  0  0  0
 21 35  1  0  0  0
 21 42  1  0  0  0
 21 76  1  0  0  0
 21 77  1  0  0  0
 22 40  1  0  0  0
 22 45  1  0  0  0
 22 78  1  0  0  0
 22 79  1  0  0  0
 23 41  1  0  0  0
 23 45  1  0  0  0
 23 80  1  0  0  0
 23 81  1  0  0  0
 24 37  1  0  0  0
 24 38  1  0  0  0
 24 82  1  0  0  0
 25 33  1  0  0  0
 25 83  1  0  0  0
 26 37  2  0  0  0
 27 34  1  0  0  0
 27 42  1  0  0  0
 27 84  1  0  0  0
 28 43  1  0  0  0
 29 46  1  0  0  0
 30 46  1  0  0  0
 31 34  1  0  0  0
 31 44  1  0  0  0
 32 37  1  0  0  0
 32 39  1  0  0  0
 36 48  1  0  0  0
 38 39  2  0  0  0
 40 85  1  0  0  0
 41 42  1  0  0  0
 41 86  1  0  0  0
 42 87  1  0  0  0
 43 47  1  0  0  0
 43 88  1  0  0  0
 44 47  1  0  0  0
 44 89  1  0  0  0
 45 48  1  0  0  0
 46 47  1  0  0  0
 46 90  1  0  0  0
 47 91  1  0  0  0
M  END
$$$$
