J77
  CCTOOLS-0919241036

 54 56  0  0  0  0  0  0  0  0999 V2000
    2.6330   -0.4490   -8.6450 C   0  0  0  0  0
    1.7930   -0.1350   -7.4340 C   0  0  0  0  0
    2.0350    1.0190   -6.7020 C   0  0  0  0  0
    1.2380    1.2680   -5.5960 C   0  0  0  0  0
    0.2430    0.3410   -5.2870 C   0  0  0  0  0
    0.0910   -0.7350   -6.0430 N   0  0  0  0  0
    0.8300   -0.9570   -7.0690 N   0  0  0  0  0
   -0.5830    0.5450   -4.1870 N   0  0  0  0  0
   -1.5080   -0.5920   -4.1390 C   0  0  0  0  0
   -2.4510   -0.4420   -2.9430 C   0  0  0  0  0
   -1.6280   -0.4360   -1.6510 C   0  0  0  0  0
   -0.5730    0.6710   -1.7390 C   0  0  0  0  0
    0.2700    0.4630   -2.9970 C   0  0  0  0  0
   -2.5500   -0.1720   -0.4590 C   0  0  0  0  0
   -1.7260   -0.1660    0.8300 C   0  0  0  0  0
   -2.5870    0.0790    1.9440 O   0  0  0  0  0
   -1.8050    0.0720    3.0530 C   0  0  0  0  0
   -2.3730    0.2870    4.3030 C   0  0  0  0  0
   -1.5830    0.2820    5.4310 C   0  0  0  0  0
   -0.2080    0.0590    5.3170 C   0  0  0  0  0
    0.3600   -0.1500    4.0570 C   0  0  0  0  0
   -0.4370   -0.1480    2.9350 C   0  0  0  0  0
    0.6410    0.0520    6.5220 C   0  0  0  0  0
    0.1460    0.2400    7.6160 O   0  0  0  0  0
    1.9670   -0.1620    6.4110 O   0  0  0  0  0
    2.8040   -0.1690    7.5970 C   0  0  0  0  0
    4.2560   -0.4330    7.1950 C   0  0  0  0  0
    2.9690    0.4790   -9.1050 H   0  0  0  0  0
    3.4990   -1.0390   -8.3430 H   0  0  0  0  0
    2.0390   -1.0150   -9.3620 H   0  0  0  0  0
    2.8200    1.7030   -6.9870 H   0  0  0  0  0
    1.3840    2.1520   -4.9920 H   0  0  0  0  0
   -0.9410   -1.5170   -4.0390 H   0  0  0  0  0
   -2.0920   -0.6230   -5.0590 H   0  0  0  0  0
   -3.1510   -1.2770   -2.9250 H   0  0  0  0  0
   -3.0010    0.4940   -3.0290 H   0  0  0  0  0
   -1.1370   -1.4010   -1.5270 H   0  0  0  0  0
   -1.0670    1.6410   -1.7880 H   0  0  0  0  0
    0.0680    0.6320   -0.8590 H   0  0  0  0  0
    0.7440   -0.5170   -2.9580 H   0  0  0  0  0
    1.0390    1.2340   -3.0490 H   0  0  0  0  0
   -3.3060   -0.9560   -0.4030 H   0  0  0  0  0
   -3.0370    0.7940   -0.5830 H   0  0  0  0  0
   -0.9700    0.6160    0.7750 H   0  0  0  0  0
   -1.2390   -1.1340    0.9540 H   0  0  0  0  0
   -3.4360    0.4590    4.3900 H   0  0  0  0  0
   -2.0260    0.4490    6.4020 H   0  0  0  0  0
    1.4220   -0.3220    3.9650 H   0  0  0  0  0
   -0.0000   -0.3150    1.9620 H   0  0  0  0  0
    2.4660   -0.9530    8.2750 H   0  0  0  0  0
    2.7350    0.7970    8.0960 H   0  0  0  0  0
    4.8840   -0.4380    8.0860 H   0  0  0  0  0
    4.3250   -1.3990    6.6960 H   0  0  0  0  0
    4.5940    0.3500    6.5170 H   0  0  0  0  0
  1  2  1  0  0  0
  1 28  1  0  0  0
  1 29  1  0  0  0
  1 30  1  0  0  0
  2  3  1  0  0  0
  2  7  2  0  0  0
  3  4  2  0  0  0
  3 31  1  0  0  0
  4  5  1  0  0  0
  4 32  1  0  0  0
  5  6  2  0  0  0
  5  8  1  0  0  0
  6  7  1  0  0  0
  8  9  1  0  0  0
  8 13  1  0  0  0
  9 10  1  0  0  0
  9 33  1  0  0  0
  9 34  1  0  0  0
 10 11  1  0  0  0
 10 35  1  0  0  0
 10 36  1  0  0  0
 11 12  1  0  0  0
 11 14  1  0  0  0
 11 37  1  0  0  0
 12 13  1  0  0  0
 12 38  1  0  0  0
 12 39  1  0  0  0
 13 40  1  0  0  0
 13 41  1  0  0  0
 14 15  1  0  0  0
 14 42  1  0  0  0
 14 43  1  0  0  0
 15 16  1  0  0  0
 15 44  1  0  0  0
 15 45  1  0  0  0
 16 17  1  0  0  0
 17 18  2  0  0  0
 17 22  1  0  0  0
 18 19  1  0  0  0
 18 46  1  0  0  0
 19 20  2  0  0  0
 19 47  1  0  0  0
 20 21  1  0  0  0
 20 23  1  0  0  0
 21 22  2  0  0  0
 21 48  1  0  0  0
 22 49  1  0  0  0
 23 24  2  0  0  0
 23 25  1  0  0  0
 25 26  1  0  0  0
 26 27  1  0  0  0
 26 50  1  0  0  0
 26 51  1  0  0  0
 27 52  1  0  0  0
 27 53  1  0  0  0
 27 54  1  0  0  0
M  END
$$$$
