J80
  CCTOOLS-0919241036

 60 62  0  0  0  0  0  0  0  0999 V2000
    2.7440   -0.3970   -9.8970 C   0  0  0  0  0
    1.9170   -0.1010   -8.6730 C   0  0  0  0  0
    2.1730    1.0370   -7.9220 C   0  0  0  0  0
    1.3870    1.2700   -6.8040 C   0  0  0  0  0
    0.3880    0.3450   -6.5040 C   0  0  0  0  0
    0.2230   -0.7160   -7.2790 N   0  0  0  0  0
    0.9510   -0.9230   -8.3160 N   0  0  0  0  0
   -0.4270    0.5330   -5.3940 N   0  0  0  0  0
   -1.3600   -0.5980   -5.3600 C   0  0  0  0  0
   -2.2910   -0.4650   -4.1530 C   0  0  0  0  0
   -1.4580   -0.4890   -2.8680 C   0  0  0  0  0
   -0.3960    0.6120   -2.9440 C   0  0  0  0  0
    0.4360    0.4220   -4.2130 C   0  0  0  0  0
   -2.3670   -0.2430   -1.6630 C   0  0  0  0  0
   -1.5330   -0.2670   -0.3810 C   0  0  0  0  0
   -2.4420   -0.0210    0.8230 C   0  0  0  0  0
   -1.6080   -0.0460    2.1060 C   0  0  0  0  0
   -2.4570    0.1840    3.2310 O   0  0  0  0  0
   -1.6660    0.1510    4.3330 C   0  0  0  0  0
   -2.2220    0.3460    5.5920 C   0  0  0  0  0
   -1.4230    0.3130    6.7130 C   0  0  0  0  0
   -0.0500    0.0830    6.5830 C   0  0  0  0  0
    0.5050   -0.1060    5.3150 C   0  0  0  0  0
   -0.3010   -0.0760    4.2000 C   0  0  0  0  0
    0.8090    0.0470    7.7800 C   0  0  0  0  0
    0.3240    0.2170    8.8820 O   0  0  0  0  0
    2.1320   -0.1730    7.6530 O   0  0  0  0  0
    2.9790   -0.2090    8.8320 C   0  0  0  0  0
    4.4260   -0.4750    8.4130 C   0  0  0  0  0
    3.0830    0.5380  -10.3420 H   0  0  0  0  0
    3.6080   -0.9990   -9.6150 H   0  0  0  0  0
    2.1400   -0.9450  -10.6200 H   0  0  0  0  0
    2.9600    1.7220   -8.2000 H   0  0  0  0  0
    1.5440    2.1410   -6.1850 H   0  0  0  0  0
   -0.7980   -1.5290   -5.2830 H   0  0  0  0  0
   -1.9510   -0.6080   -6.2750 H   0  0  0  0  0
   -2.9970   -1.2950   -4.1450 H   0  0  0  0  0
   -2.8360    0.4760   -4.2160 H   0  0  0  0  0
   -0.9720   -1.4600   -2.7670 H   0  0  0  0  0
   -0.8840    1.5860   -2.9700 H   0  0  0  0  0
    0.2520    0.5520   -2.0700 H   0  0  0  0  0
    0.9030   -0.5620   -4.1970 H   0  0  0  0  0
    1.2090    1.1890   -4.2570 H   0  0  0  0  0
   -3.1280   -1.0220   -1.6170 H   0  0  0  0  0
   -2.8490    0.7290   -1.7640 H   0  0  0  0  0
   -0.7720    0.5110   -0.4270 H   0  0  0  0  0
   -1.0510   -1.2400   -0.2800 H   0  0  0  0  0
   -3.2030   -0.8000    0.8700 H   0  0  0  0  0
   -2.9240    0.9510    0.7220 H   0  0  0  0  0
   -0.8470    0.7330    2.0590 H   0  0  0  0  0
   -1.1260   -1.0180    2.2070 H   0  0  0  0  0
   -3.2830    0.5230    5.6910 H   0  0  0  0  0
   -1.8560    0.4640    7.6900 H   0  0  0  0  0
    1.5650   -0.2830    5.2100 H   0  0  0  0  0
    0.1260   -0.2270    3.2200 H   0  0  0  0  0
    2.6410   -1.0030    9.4980 H   0  0  0  0  0
    2.9200    0.7480    9.3500 H   0  0  0  0  0
    5.0610   -0.5010    9.2980 H   0  0  0  0  0
    4.4840   -1.4320    7.8950 H   0  0  0  0  0
    4.7630    0.3190    7.7470 H   0  0  0  0  0
  1  2  1  0  0  0
  1 30  1  0  0  0
  1 31  1  0  0  0
  1 32  1  0  0  0
  2  3  1  0  0  0
  2  7  2  0  0  0
  3  4  2  0  0  0
  3 33  1  0  0  0
  4  5  1  0  0  0
  4 34  1  0  0  0
  5  6  2  0  0  0
  5  8  1  0  0  0
  6  7  1  0  0  0
  8  9  1  0  0  0
  8 13  1  0  0  0
  9 10  1  0  0  0
  9 35  1  0  0  0
  9 36  1  0  0  0
 10 11  1  0  0  0
 10 37  1  0  0  0
 10 38  1  0  0  0
 11 12  1  0  0  0
 11 14  1  0  0  0
 11 39  1  0  0  0
 12 13  1  0  0  0
 12 40  1  0  0  0
 12 41  1  0  0  0
 13 42  1  0  0  0
 13 43  1  0  0  0
 14 15  1  0  0  0
 14 44  1  0  0  0
 14 45  1  0  0  0
 15 16  1  0  0  0
 15 46  1  0  0  0
 15 47  1  0  0  0
 16 17  1  0  0  0
 16 48  1  0  0  0
 16 49  1  0  0  0
 17 18  1  0  0  0
 17 50  1  0  0  0
 17 51  1  0  0  0
 18 19  1  0  0  0
 19 20  2  0  0  0
 19 24  1  0  0  0
 20 21  1  0  0  0
 20 52  1  0  0  0
 21 22  2  0  0  0
 21 53  1  0  0  0
 22 23  1  0  0  0
 22 25  1  0  0  0
 23 24  2  0  0  0
 23 54  1  0  0  0
 24 55  1  0  0  0
 25 26  2  0  0  0
 25 27  1  0  0  0
 27 28  1  0  0  0
 28 29  1  0  0  0
 28 56  1  0  0  0
 28 57  1  0  0  0
 29 58  1  0  0  0
 29 59  1  0  0  0
 29 60  1  0  0  0
M  END
$$$$
