JB1
  CCTOOLS-0919241036

 77 79  0  0  1  0  0  0  0  0999 V2000
    8.4830   -0.4250    2.2510 C   0  0  0  0  0
    7.3400   -0.9550    1.3830 C   0  0  0  0  0
    6.3360    0.1690    1.1210 C   0  0  0  0  0
    5.1930   -0.3600    0.2530 C   0  0  0  0  0
    4.1880    0.7640   -0.0090 C   0  0  0  0  0
    4.8560    1.8590   -0.8430 C   0  0  0  0  0
    3.8970    3.0430   -0.9910 C   0  0  0  0  0
    4.4820    4.0250   -1.8470 O   0  0  0  0  0
    2.9850    0.2050   -0.7710 C   0  0  0  0  0
    3.4590   -0.4300   -2.0790 C   0  0  0  0  0
    2.2860   -0.8530    0.0860 C   0  0  0  0  0
    1.8600   -0.2480    1.4490 C   0  0  0  0  0
    0.3240   -0.4600    1.5610 C   0  0  0  0  0
    0.0800   -1.6550    0.6360 C   0  0  0  0  0
    0.9880   -1.2930   -0.5730 C   0  0  0  0  0
    0.3760   -0.1090   -1.3250 C   0  0  0  0  0
    1.0210   -2.4900   -1.4940 C   0  0  0  0  0
   -0.3830   -2.6460   -2.1030 C   0  0  0  0  0
   -1.4490   -2.8420   -1.0270 C   0  0  0  0  0
   -1.3020   -1.7990    0.0720 C   0  0  0  0  0
   -2.3290   -1.0660    0.5030 C   0  0  0  0  0
   -3.6580   -1.2500   -0.0860 C   0  0  0  0  0
   -4.6970   -0.5080    0.3500 C   0  0  0  0  0
   -6.0870   -0.6680   -0.2320 C   0  0  0  0  0
   -6.6490    0.7260   -0.5290 C   0  0  0  0  0
   -7.9810    0.6030   -1.0320 O   0  0  0  0  0
   -6.6650    1.5610    0.7520 C   0  0  0  0  0
   -5.2280    1.8310    1.2120 C   0  0  0  0  0
   -4.5360    2.5850    0.2150 O   0  0  0  0  0
   -4.5360    0.4950    1.4230 C   0  0  0  0  0
   -3.8190    0.2400    2.5170 C   0  0  0  0  0
    8.9820    0.3940    1.7340 H   0  0  0  0  0
    8.0830   -0.0670    3.2000 H   0  0  0  0  0
    9.1990   -1.2260    2.4380 H   0  0  0  0  0
    7.7400   -1.3130    0.4350 H   0  0  0  0  0
    6.8410   -1.7750    1.9000 H   0  0  0  0  0
    5.9360    0.5280    2.0690 H   0  0  0  0  0
    6.8350    0.9890    0.6040 H   0  0  0  0  0
    5.5930   -0.7190   -0.6960 H   0  0  0  0  0
    4.6940   -1.1800    0.7700 H   0  0  0  0  0
    3.8550    1.1820    0.9400 H   0  0  0  0  0
    5.7670    2.1900   -0.3460 H   0  0  0  0  0
    5.1020    1.4660   -1.8300 H   0  0  0  0  0
    2.9570    2.6980   -1.4220 H   0  0  0  0  0
    3.7080    3.4810   -0.0110 H   0  0  0  0  0
    3.9280    4.8060   -1.9860 H   0  0  0  0  0
    2.2870    1.0130   -0.9910 H   0  0  0  0  0
    4.1570   -1.2380   -1.8590 H   0  0  0  0  0
    2.6020   -0.8280   -2.6220 H   0  0  0  0  0
    3.9570    0.3230   -2.6890 H   0  0  0  0  0
    2.9430   -1.7090    0.2400 H   0  0  0  0  0
    2.3700   -0.7640    2.2630 H   0  0  0  0  0
    2.0940    0.8170    1.4750 H   0  0  0  0  0
    0.0410   -0.7010    2.5860 H   0  0  0  0  0
   -0.2140    0.4190    1.2070 H   0  0  0  0  0
    0.4100   -2.5810    1.1070 H   0  0  0  0  0
    1.0000    0.1380   -2.1840 H   0  0  0  0  0
   -0.6240   -0.3730   -1.6670 H   0  0  0  0  0
    0.3170    0.7520   -0.6590 H   0  0  0  0  0
    1.7520   -2.3280   -2.2860 H   0  0  0  0  0
    1.2800   -3.3850   -0.9280 H   0  0  0  0  0
   -0.6210   -1.7530   -2.6810 H   0  0  0  0  0
   -0.3880   -3.5100   -2.7680 H   0  0  0  0  0
   -2.4370   -2.7500   -1.4790 H   0  0  0  0  0
   -1.3440   -3.8360   -0.5940 H   0  0  0  0  0
   -2.1810   -0.3370    1.2860 H   0  0  0  0  0
   -3.8060   -1.9790   -0.8680 H   0  0  0  0  0
   -6.0340   -1.2470   -1.1550 H   0  0  0  0  0
   -6.7290   -1.1790    0.4850 H   0  0  0  0  0
   -6.0240    1.2180   -1.2740 H   0  0  0  0  0
   -8.0480    0.0890   -1.8480 H   0  0  0  0  0
   -7.1680    2.5090    0.5600 H   0  0  0  0  0
   -7.1990    1.0200    1.5320 H   0  0  0  0  0
   -5.2420    2.3880    2.1490 H   0  0  0  0  0
   -3.6200    2.7910    0.4430 H   0  0  0  0  0
   -3.3370   -0.7200    2.6350 H   0  0  0  0  0
   -3.7190    0.9920    3.2850 H   0  0  0  0  0
  1  2  1  0  0  0
  1 32  1  0  0  0
  1 33  1  0  0  0
  1 34  1  0  0  0
  2  3  1  0  0  0
  2 35  1  0  0  0
  2 36  1  0  0  0
  3  4  1  0  0  0
  3 37  1  0  0  0
  3 38  1  0  0  0
  4  5  1  0  0  0
  4 39  1  0  0  0
  4 40  1  0  0  0
  5  6  1  0  0  0
  5  9  1  0  0  0
  5 41  1  0  0  0
  6  7  1  0  0  0
  6 42  1  0  0  0
  6 43  1  0  0  0
  7  8  1  0  0  0
  7 44  1  0  0  0
  7 45  1  0  0  0
  8 46  1  0  0  0
  9 10  1  0  0  0
  9 11  1  0  0  0
  9 47  1  0  0  0
 10 48  1  0  0  0
 10 49  1  0  0  0
 10 50  1  0  0  0
 11 12  1  0  0  0
 11 15  1  0  0  0
 11 51  1  0  0  0
 12 13  1  0  0  0
 12 52  1  0  0  0
 12 53  1  0  0  0
 13 14  1  0  0  0
 13 54  1  0  0  0
 13 55  1  0  0  0
 14 15  1  0  0  0
 14 20  1  0  0  0
 14 56  1  0  0  0
 15 16  1  0  0  0
 15 17  1  0  0  0
 16 57  1  0  0  0
 16 58  1  0  0  0
 16 59  1  0  0  0
 17 18  1  0  0  0
 17 60  1  0  0  0
 17 61  1  0  0  0
 18 19  1  0  0  0
 18 62  1  0  0  0
 18 63  1  0  0  0
 19 20  1  0  0  0
 19 64  1  0  0  0
 19 65  1  0  0  0
 20 21  2  0  0  0
 21 22  1  0  0  0
 21 66  1  0  0  0
 22 23  2  0  0  0
 22 67  1  0  0  0
 23 24  1  0  0  0
 23 30  1  0  0  0
 24 25  1  0  0  0
 24 68  1  0  0  0
 24 69  1  0  0  0
 25 26  1  0  0  0
 25 27  1  0  0  0
 25 70  1  0  0  0
 26 71  1  0  0  0
 27 28  1  0  0  0
 27 72  1  0  0  0
 27 73  1  0  0  0
 28 29  1  0  0  0
 28 30  1  0  0  0
 28 74  1  0  0  0
 29 75  1  0  0  0
 30 31  2  0  0  0
 31 76  1  0  0  0
 31 77  1  0  0  0
M  END
$$$$
