JC1
  CCTOOLS-0919241036

 77 79  0  0  1  0  0  0  0  0999 V2000
    7.6650   -1.9160   -1.5770 C   0  0  0  0  0
    6.4310   -1.8600   -0.6750 C   0  0  0  0  0
    5.9260   -0.4180   -0.5900 C   0  0  0  0  0
    4.6920   -0.3620    0.3120 C   0  0  0  0  0
    4.1870    1.0800    0.3970 C   0  0  0  0  0
    3.7340    1.5440   -0.9890 C   0  0  0  0  0
    3.4670    3.0500   -0.9610 C   0  0  0  0  0
    3.1470    3.5020   -2.2780 O   0  0  0  0  0
    3.0080    1.1510    1.3690 C   0  0  0  0  0
    3.5010    1.6340    2.7350 C   0  0  0  0  0
    2.3820   -0.2370    1.5140 C   0  0  0  0  0
    1.5060   -0.3020    2.7930 C   0  0  0  0  0
    0.0810   -0.7130    2.3250 C   0  0  0  0  0
    0.3540   -1.4370    1.0050 C   0  0  0  0  0
    1.4230   -0.5070    0.3650 C   0  0  0  0  0
    0.7610    0.8050   -0.0600 C   0  0  0  0  0
    1.9570   -1.2040   -0.8650 C   0  0  0  0  0
    0.8220   -1.2510   -1.9010 C   0  0  0  0  0
   -0.4030   -1.9920   -1.3680 C   0  0  0  0  0
   -0.7750   -1.4880    0.0190 C   0  0  0  0  0
   -2.0170   -1.1200    0.3350 C   0  0  0  0  0
   -3.0800   -1.1910   -0.6700 C   0  0  0  0  0
   -4.3370   -0.8180   -0.3500 C   0  0  0  0  0
   -5.4650   -0.8770   -1.3600 C   0  0  0  0  0
   -6.2410    0.4420   -1.2940 C   0  0  0  0  0
   -7.3430    0.3900   -2.2030 O   0  0  0  0  0
   -6.7640    0.6650    0.1250 C   0  0  0  0  0
   -5.5880    0.8790    1.0830 C   0  0  0  0  0
   -4.8630    2.0500    0.7020 O   0  0  0  0  0
   -4.6810   -0.3380    1.0050 C   0  0  0  0  0
   -4.2160   -0.9410    2.0990 C   0  0  0  0  0
    7.4030   -1.5640   -2.5740 H   0  0  0  0  0
    8.4480   -1.2800   -1.1620 H   0  0  0  0  0
    8.0250   -2.9430   -1.6370 H   0  0  0  0  0
    5.6480   -2.4950   -1.0900 H   0  0  0  0  0
    6.6940   -2.2120    0.3230 H   0  0  0  0  0
    6.7080    0.2170   -0.1750 H   0  0  0  0  0
    5.6630   -0.0660   -1.5880 H   0  0  0  0  0
    3.9090   -0.9970   -0.1030 H   0  0  0  0  0
    4.9540   -0.7140    1.3100 H   0  0  0  0  0
    4.9900    1.7260    0.7520 H   0  0  0  0  0
    4.5140    1.3270   -1.7180 H   0  0  0  0  0
    2.8200    1.0180   -1.2680 H   0  0  0  0  0
    2.6310    3.2590   -0.2920 H   0  0  0  0  0
    4.3560    3.5700   -0.6040 H   0  0  0  0  0
    2.9660    4.4500   -2.3360 H   0  0  0  0  0
    2.2620    1.8480    0.9860 H   0  0  0  0  0
    4.2280    0.9240    3.1300 H   0  0  0  0  0
    3.9700    2.6120    2.6270 H   0  0  0  0  0
    2.6570    1.7090    3.4200 H   0  0  0  0  0
    3.1590   -1.0000    1.5490 H   0  0  0  0  0
    1.9030   -1.0480    3.4810 H   0  0  0  0  0
    1.4740    0.6750    3.2750 H   0  0  0  0  0
   -0.3840   -1.3860    3.0460 H   0  0  0  0  0
   -0.5410    0.1680    2.1620 H   0  0  0  0  0
    0.7610   -2.4310    1.1870 H   0  0  0  0  0
    1.4650    1.3940   -0.6460 H   0  0  0  0  0
   -0.1220    0.5880   -0.6620 H   0  0  0  0  0
    0.4660    1.3670    0.8270 H   0  0  0  0  0
    2.8030   -0.6480   -1.2680 H   0  0  0  0  0
    2.2670   -2.2180   -0.6110 H   0  0  0  0  0
    0.5350   -0.2310   -2.1600 H   0  0  0  0  0
    1.1800   -1.7550   -2.7980 H   0  0  0  0  0
   -1.2420   -1.8330   -2.0450 H   0  0  0  0  0
   -0.1820   -3.0580   -1.3150 H   0  0  0  0  0
   -2.2390   -0.7680    1.3320 H   0  0  0  0  0
   -2.8590   -1.5430   -1.6660 H   0  0  0  0  0
   -5.0540   -1.0120   -2.3610 H   0  0  0  0  0
   -6.1290   -1.7070   -1.1200 H   0  0  0  0  0
   -5.5820    1.2650   -1.5710 H   0  0  0  0  0
   -7.0860    0.2550   -3.1260 H   0  0  0  0  0
   -7.4080    1.5440    0.1400 H   0  0  0  0  0
   -7.3350   -0.2070    0.4420 H   0  0  0  0  0
   -5.9590    0.9930    2.1020 H   0  0  0  0  0
   -4.1040    2.2450    1.2680 H   0  0  0  0  0
   -3.5720   -1.8020    2.0080 H   0  0  0  0  0
   -4.4850   -0.5670    3.0760 H   0  0  0  0  0
  1  2  1  0  0  0
  1 32  1  0  0  0
  1 33  1  0  0  0
  1 34  1  0  0  0
  2  3  1  0  0  0
  2 35  1  0  0  0
  2 36  1  0  0  0
  3  4  1  0  0  0
  3 37  1  0  0  0
  3 38  1  0  0  0
  4  5  1  0  0  0
  4 39  1  0  0  0
  4 40  1  0  0  0
  5  6  1  0  0  0
  5  9  1  0  0  0
  5 41  1  0  0  0
  6  7  1  0  0  0
  6 42  1  0  0  0
  6 43  1  0  0  0
  7  8  1  0  0  0
  7 44  1  0  0  0
  7 45  1  0  0  0
  8 46  1  0  0  0
  9 10  1  0  0  0
  9 11  1  0  0  0
  9 47  1  0  0  0
 10 48  1  0  0  0
 10 49  1  0  0  0
 10 50  1  0  0  0
 11 12  1  0  0  0
 11 15  1  0  0  0
 11 51  1  0  0  0
 12 13  1  0  0  0
 12 52  1  0  0  0
 12 53  1  0  0  0
 13 14  1  0  0  0
 13 54  1  0  0  0
 13 55  1  0  0  0
 14 15  1  0  0  0
 14 20  1  0  0  0
 14 56  1  0  0  0
 15 16  1  0  0  0
 15 17  1  0  0  0
 16 57  1  0  0  0
 16 58  1  0  0  0
 16 59  1  0  0  0
 17 18  1  0  0  0
 17 60  1  0  0  0
 17 61  1  0  0  0
 18 19  1  0  0  0
 18 62  1  0  0  0
 18 63  1  0  0  0
 19 20  1  0  0  0
 19 64  1  0  0  0
 19 65  1  0  0  0
 20 21  2  0  0  0
 21 22  1  0  0  0
 21 66  1  0  0  0
 22 23  2  0  0  0
 22 67  1  0  0  0
 23 24  1  0  0  0
 23 30  1  0  0  0
 24 25  1  0  0  0
 24 68  1  0  0  0
 24 69  1  0  0  0
 25 26  1  0  0  0
 25 27  1  0  0  0
 25 70  1  0  0  0
 26 71  1  0  0  0
 27 28  1  0  0  0
 27 72  1  0  0  0
 27 73  1  0  0  0
 28 29  1  0  0  0
 28 30  1  0  0  0
 28 74  1  0  0  0
 29 75  1  0  0  0
 30 31  2  0  0  0
 31 76  1  0  0  0
 31 77  1  0  0  0
M  END
$$$$
