JFK
  CCTOOLS-0919241037

 66 70  0  0  1  0  0  0  0  0999 V2000
   -0.9440    2.1960    1.0640 C   0  0  0  0  0
    1.1210    1.5970   -0.0720 N   0  0  0  0  0
   -1.7320    1.8850    1.9320 O   0  0  0  0  0
    0.4950    1.8050    1.2420 C   0  0  0  0  0
    1.2330    2.9270    1.9760 C   0  0  0  0  0
   -7.8920   -2.8000   -2.0080 C   0  0  0  0  0
   -4.5900   -3.1630    2.5100 C   0  0  0  0  0
    8.3480   -2.7500    0.1470 O   0  0  0  0  0
    0.0650   -0.6290   -0.2200 O   0  0  0  0  0
    1.2880    0.3250   -2.1800 O   0  0  0  0  0
   -5.3780    0.2530   -0.9840 C   0  0  0  0  0
   -6.2210   -0.7930   -1.3100 C   0  0  0  0  0
    2.6210   -1.4790    0.8920 C   0  0  0  0  0
    3.7640   -2.1170    1.3120 C   0  0  0  0  0
   -4.5880   -0.9730    0.9250 C   0  0  0  0  0
    3.7880   -0.5670   -0.9820 C   0  0  0  0  0
    2.7040    2.9400    1.5760 C   0  0  0  0  0
   -3.7570    2.3380   -0.4080 C   0  0  0  0  0
    2.8640    3.3190    0.1080 C   0  0  0  0  0
    0.6450    3.8240   -0.9610 C   0  0  0  0  0
   -2.7680    3.3850    0.1070 C   0  0  0  0  0
   -0.6880    3.1090   -1.2290 C   0  0  0  0  0
    6.1870   -2.5690    0.8690 N   0  0  0  0  0
   -7.0840   -2.9590   -0.8400 O   0  0  0  0  0
   -5.4660   -3.1350    1.3810 O   0  0  0  0  0
   -3.7330    1.1960    0.4520 O   0  0  0  0  0
    6.5780   -1.2710   -1.2290 S   0  0  0  0  0
   -4.5610    0.1660    0.1330 C   0  0  0  0  0
    2.6210   -0.7030   -0.2550 C   0  0  0  0  0
   -6.2540   -1.9290   -0.5180 C   0  0  0  0  0
   -5.4390   -2.0170    0.6060 C   0  0  0  0  0
    7.2110   -2.3280    0.0440 C   0  0  0  0  0
    4.9590   -1.9970    0.5870 C   0  0  0  0  0
    4.9390   -1.2120   -0.5660 C   0  0  0  0  0
    1.7230    2.7600   -0.7280 C   0  0  0  0  0
   -1.4050    2.8570    0.0120 N   0  0  0  0  0
    1.1460    0.1020   -0.7840 S   0  0  0  0  0
    0.5540    0.8850    1.8230 H   0  0  0  0  0
    0.7800    3.8850    1.7190 H   0  0  0  0  0
    1.1520    2.7690    3.0510 H   0  0  0  0  0
   -8.5040   -3.6910   -2.1500 H   0  0  0  0  0
   -8.5380   -1.9310   -1.8880 H   0  0  0  0  0
   -7.2500   -2.6590   -2.8780 H   0  0  0  0  0
   -3.5590   -3.0660    2.1710 H   0  0  0  0  0
   -4.8320   -2.3360    3.1780 H   0  0  0  0  0
   -4.7120   -4.1070    3.0400 H   0  0  0  0  0
   -5.3530    1.1380   -1.6020 H   0  0  0  0  0
   -6.8540   -0.7250   -2.1820 H   0  0  0  0  0
    1.7090   -1.5870    1.4620 H   0  0  0  0  0
    3.7410   -2.7170    2.2100 H   0  0  0  0  0
   -3.9510   -1.0410    1.7950 H   0  0  0  0  0
    3.7990    0.0350   -1.8780 H   0  0  0  0  0
    3.2360    3.6630    2.1940 H   0  0  0  0  0
    3.1280    1.9490    1.7380 H   0  0  0  0  0
   -4.7610    2.7620   -0.4200 H   0  0  0  0  0
   -3.4770    2.0380   -1.4180 H   0  0  0  0  0
    2.8740    4.4060    0.0180 H   0  0  0  0  0
    3.8080    2.9210   -0.2640 H   0  0  0  0  0
    0.9140    4.4350   -1.8230 H   0  0  0  0  0
    0.5550    4.4560   -0.0770 H   0  0  0  0  0
   -2.8500    4.2890   -0.4960 H   0  0  0  0  0
   -2.9950    3.6190    1.1470 H   0  0  0  0  0
   -1.3040    3.7330   -1.8760 H   0  0  0  0  0
   -0.4900    2.1610   -1.7300 H   0  0  0  0  0
    6.3030   -3.1330    1.6500 H   0  0  0  0  0
    2.1270    2.4500   -1.6920 H   0  0  0  0  0
  1  3  2  0  0  0
  1  4  1  0  0  0
  2 35  1  0  0  0
  2  4  1  0  0  0
  4  5  1  0  0  0
  4 38  1  0  0  0
  5 17  1  0  0  0
  5 39  1  0  0  0
  5 40  1  0  0  0
  6 41  1  0  0  0
  6 42  1  0  0  0
  6 43  1  0  0  0
  7 25  1  0  0  0
  7 44  1  0  0  0
  7 45  1  0  0  0
  7 46  1  0  0  0
  8 32  2  0  0  0
 11 12  1  0  0  0
 11 47  1  0  0  0
 12 48  1  0  0  0
 13 29  1  0  0  0
 13 49  1  0  0  0
 14 13  2  0  0  0
 14 50  1  0  0  0
 15 28  1  0  0  0
 15 31  2  0  0  0
 15 51  1  0  0  0
 16 29  2  0  0  0
 16 52  1  0  0  0
 17 53  1  0  0  0
 17 54  1  0  0  0
 18 26  1  0  0  0
 18 21  1  0  0  0
 18 55  1  0  0  0
 18 56  1  0  0  0
 19 17  1  0  0  0
 19 57  1  0  0  0
 19 58  1  0  0  0
 20 35  1  0  0  0
 20 59  1  0  0  0
 20 60  1  0  0  0
 21 36  1  0  0  0
 21 61  1  0  0  0
 21 62  1  0  0  0
 22 20  1  0  0  0
 22 36  1  0  0  0
 22 63  1  0  0  0
 22 64  1  0  0  0
 23 33  1  0  0  0
 23 65  1  0  0  0
 24  6  1  0  0  0
 25 31  1  0  0  0
 26 28  1  0  0  0
 27 34  1  0  0  0
 28 11  2  0  0  0
 29 37  1  0  0  0
 30 12  2  0  0  0
 30 24  1  0  0  0
 31 30  1  0  0  0
 32 23  1  0  0  0
 32 27  1  0  0  0
 33 14  1  0  0  0
 33 34  2  0  0  0
 34 16  1  0  0  0
 35 19  1  0  0  0
 35 66  1  0  0  0
 36  1  1  0  0  0
 37  2  1  0  0  0
 37  9  2  0  0  0
 37 10  2  0  0  0
M  END
$$$$
