JZA
  CCTOOLS-0919241040

 26 27  0  0  0  0  0  0  0  0999 V2000
   -1.6780   -1.1380    0.4000 C   0  0  0  0  0
   -2.8670   -1.4340   -0.5210 C   0  0  0  0  0
   -3.9470   -0.5580   -0.1920 O   0  0  0  0  0
   -3.6570    0.8280   -0.3900 C   0  0  0  0  0
   -2.5080    1.2400    0.5380 C   0  0  0  0  0
   -1.3910    0.3040    0.3380 N   0  0  0  0  0
   -0.1420    0.7530    0.1050 C   0  0  0  0  0
    0.0490    1.9360   -0.1030 O   0  0  0  0  0
    0.8950   -0.1080    0.1040 N   0  0  0  0  0
    1.0350   -1.5450    0.3300 C   0  0  0  0  0
    2.3760   -1.3300    1.0290 C   0  0  0  0  0
    2.5210    0.0340   -0.1620 S   0  0  0  0  0
    2.8110   -0.3850   -1.4880 O   0  0  0  0  0
    2.9780    1.2550    0.4030 O   0  0  0  0  0
   -1.9270   -1.4190    1.4230 H   0  0  0  0  0
   -0.8060   -1.7010    0.0660 H   0  0  0  0  0
   -2.5720   -1.2760   -1.5590 H   0  0  0  0  0
   -3.1840   -2.4690   -0.3860 H   0  0  0  0  0
   -3.3650    0.9950   -1.4270 H   0  0  0  0  0
   -4.5420    1.4220   -0.1600 H   0  0  0  0  0
   -2.1860    2.2530    0.2960 H   0  0  0  0  0
   -2.8410    1.1990    1.5750 H   0  0  0  0  0
    0.2690   -1.9490    0.9930 H   0  0  0  0  0
    1.1230   -2.1150   -0.5950 H   0  0  0  0  0
    2.2940   -1.0140    2.0690 H   0  0  0  0  0
    3.0950   -2.1340    0.8760 H   0  0  0  0  0
  1  2  1  0  0  0
  1  6  1  0  0  0
  1 15  1  0  0  0
  1 16  1  0  0  0
  2  3  1  0  0  0
  2 17  1  0  0  0
  2 18  1  0  0  0
  3  4  1  0  0  0
  4  5  1  0  0  0
  4 19  1  0  0  0
  4 20  1  0  0  0
  5  6  1  0  0  0
  5 21  1  0  0  0
  5 22  1  0  0  0
  6  7  1  0  0  0
  7  8  2  0  0  0
  7  9  1  0  0  0
  9 10  1  0  0  0
  9 12  1  0  0  0
 10 11  1  0  0  0
 10 23  1  0  0  0
 10 24  1  0  0  0
 11 12  1  0  0  0
 11 25  1  0  0  0
 11 26  1  0  0  0
 12 13  2  0  0  0
 12 14  2  0  0  0
M  END
$$$$
