JZD
  CCTOOLS-0919241040

 87 90  0  0  0  0  0  0  0  0999 V2000
  -10.8810   -2.7720    0.8400 O   0  0  0  0  0
   10.8500   -2.7420   -0.8360 O   0  0  0  0  0
  -10.9510   -4.1560   -0.8950 O   0  0  0  0  0
   10.9790   -4.1840    0.8480 O   0  0  0  0  0
   -8.1990    1.3130    3.4280 CL  0  0  0  0  0
   -8.6590    1.3390   -1.9630 CL  0  0  0  0  0
    8.1990    1.3500   -3.4150 CL  0  0  0  0  0
    8.6570    1.3030    1.9750 CL  0  0  0  0  0
  -14.6440   -0.8040   -1.7400 C   0  0  0  0  0
   14.6410   -0.8070    1.7290 C   0  0  0  0  0
  -14.2430   -1.9610   -2.3890 C   0  0  0  0  0
   14.2480   -1.9730    2.3660 C   0  0  0  0  0
  -13.9910   -0.3790   -0.6010 C   0  0  0  0  0
   13.9850   -0.3750    0.5940 C   0  0  0  0  0
  -13.1910   -2.7050   -1.9000 C   0  0  0  0  0
   13.1980   -2.7160    1.8740 C   0  0  0  0  0
  -10.3130    0.2750    2.0950 C   0  0  0  0  0
  -10.5170    0.2850   -0.3010 C   0  0  0  0  0
   10.3120    0.2940   -2.0960 C   0  0  0  0  0
   10.5240    0.2900    0.3000 C   0  0  0  0  0
    0.0000    1.9410    0.0100 C   0  0  0  0  0
   -1.2450    1.0580    0.1120 C   0  0  0  0  0
    1.2450    1.0580   -0.1030 C   0  0  0  0  0
   -2.4890    1.9410    0.2240 C   0  0  0  0  0
    2.4900    1.9420   -0.2050 C   0  0  0  0  0
   -3.7340    1.0580    0.3260 C   0  0  0  0  0
    3.7340    1.0590   -0.3170 C   0  0  0  0  0
   -4.9780    1.9410    0.4390 C   0  0  0  0  0
    4.9790    1.9420   -0.4190 C   0  0  0  0  0
   -6.2230    1.0570    0.5410 C   0  0  0  0  0
    6.2230    1.0590   -0.5320 C   0  0  0  0  0
  -12.2660   -0.6870    1.0510 N   0  0  0  0  0
   12.2650   -0.6820   -1.0630 N   0  0  0  0  0
   -7.3850    1.8820    0.6460 O   0  0  0  0  0
    7.3860    1.8850   -0.6270 O   0  0  0  0  0
  -11.4010   -3.0850   -0.2130 C   0  0  0  0  0
   11.3990   -3.0830    0.1930 C   0  0  0  0  0
  -11.0290   -0.0410    0.9480 C   0  0  0  0  0
   11.0310   -0.0310   -0.9530 C   0  0  0  0  0
   -9.0940    0.9180    1.9940 C   0  0  0  0  0
   -9.3000    0.9330   -0.4010 C   0  0  0  0  0
    9.0940    0.9370   -1.9860 C   0  0  0  0  0
    9.3000    0.9220    0.4090 C   0  0  0  0  0
  -12.9240   -1.1120   -0.0960 C   0  0  0  0  0
   12.9270   -1.1140    0.0790 C   0  0  0  0  0
  -12.5230   -2.2920   -0.7440 C   0  0  0  0  0
   12.5230   -2.2930    0.7250 C   0  0  0  0  0
   -8.5850    1.2480    0.7460 C   0  0  0  0  0
    8.5850    1.2520   -0.7340 C   0  0  0  0  0
  -10.2130   -4.6460   -0.5070 H   0  0  0  0  0
   10.2380   -4.6690    0.4600 H   0  0  0  0  0
  -15.4700   -0.2290   -2.1310 H   0  0  0  0  0
   15.4620   -0.2290    2.1250 H   0  0  0  0  0
  -14.7580   -2.2820   -3.2820 H   0  0  0  0  0
   14.7690   -2.3020    3.2530 H   0  0  0  0  0
  -14.3100    0.5240   -0.1020 H   0  0  0  0  0
   14.2940    0.5370    0.1060 H   0  0  0  0  0
  -12.8830   -3.6060   -2.4100 H   0  0  0  0  0
   12.8960   -3.6250    2.3740 H   0  0  0  0  0
  -10.7110    0.0220    3.0670 H   0  0  0  0  0
  -11.0730    0.0390   -1.1940 H   0  0  0  0  0
   10.7080    0.0490   -3.0710 H   0  0  0  0  0
   11.0810    0.0330    1.1890 H   0  0  0  0  0
   -0.0760    2.5760   -0.8730 H   0  0  0  0  0
    0.0770    2.5650    0.9000 H   0  0  0  0  0
   -1.3210    0.4340   -0.7790 H   0  0  0  0  0
   -1.1680    0.4230    0.9940 H   0  0  0  0  0
    1.3210    0.4240    0.7800 H   0  0  0  0  0
   -2.4120    2.5650    1.1150 H   0  0  0  0  0
   -2.5650    2.5760   -0.6580 H   0  0  0  0  0
    2.4130    2.5770   -1.0870 H   0  0  0  0  0
   -3.8110    0.4340   -0.5640 H   0  0  0  0  0
   -3.6580    0.4230    1.2090 H   0  0  0  0  0
    3.8100    0.4240    0.5660 H   0  0  0  0  0
    3.6570    0.4350   -1.2080 H   0  0  0  0  0
   -4.9020    2.5640    1.3290 H   0  0  0  0  0
   -5.0550    2.5750   -0.4440 H   0  0  0  0  0
    4.9030    2.5770   -1.3020 H   0  0  0  0  0
    5.0550    2.5660    0.4720 H   0  0  0  0  0
   -6.3000    0.4330   -0.3500 H   0  0  0  0  0
   -6.1470    0.4220    1.4230 H   0  0  0  0  0
    6.2990    0.4250    0.3510 H   0  0  0  0  0
    6.1460    0.4360   -1.4220 H   0  0  0  0  0
  -12.6630   -0.8380    1.9230 H   0  0  0  0  0
   12.6580   -0.8320   -1.9370 H   0  0  0  0  0
    1.1680    0.4350   -0.9930 H   0  0  0  0  0
    2.5660    2.5660    0.6860 H   0  0  0  0  0
  1 36  2  0  0  0
  2 37  2  0  0  0
  3 50  1  0  0  0
  4 51  1  0  0  0
  5 40  1  0  0  0
  6 41  1  0  0  0
  9 11  1  0  0  0
  9 52  1  0  0  0
 10 14  1  0  0  0
 10 53  1  0  0  0
 11 54  1  0  0  0
 12 10  2  0  0  0
 12 55  1  0  0  0
 13  9  2  0  0  0
 13 56  1  0  0  0
 14 57  1  0  0  0
 15 11  2  0  0  0
 15 58  1  0  0  0
 16 12  1  0  0  0
 16 47  2  0  0  0
 16 59  1  0  0  0
 17 38  1  0  0  0
 17 60  1  0  0  0
 18 38  2  0  0  0
 18 61  1  0  0  0
 19 42  1  0  0  0
 19 62  1  0  0  0
 20 43  2  0  0  0
 20 63  1  0  0  0
 21 22  1  0  0  0
 21 64  1  0  0  0
 21 65  1  0  0  0
 22 24  1  0  0  0
 22 66  1  0  0  0
 22 67  1  0  0  0
 23 21  1  0  0  0
 23 68  1  0  0  0
 23 86  1  0  0  0
 24 26  1  0  0  0
 24 69  1  0  0  0
 24 70  1  0  0  0
 25 23  1  0  0  0
 25 71  1  0  0  0
 25 87  1  0  0  0
 26 28  1  0  0  0
 26 72  1  0  0  0
 26 73  1  0  0  0
 27 25  1  0  0  0
 27 74  1  0  0  0
 27 75  1  0  0  0
 28 30  1  0  0  0
 28 76  1  0  0  0
 28 77  1  0  0  0
 29 27  1  0  0  0
 29 78  1  0  0  0
 29 79  1  0  0  0
 30 34  1  0  0  0
 30 80  1  0  0  0
 30 81  1  0  0  0
 31 29  1  0  0  0
 31 82  1  0  0  0
 31 83  1  0  0  0
 32 44  1  0  0  0
 32 84  1  0  0  0
 33 39  1  0  0  0
 33 85  1  0  0  0
 34 48  1  0  0  0
 35 31  1  0  0  0
 36  3  1  0  0  0
 36 46  1  0  0  0
 37  4  1  0  0  0
 37 47  1  0  0  0
 38 32  1  0  0  0
 39 19  2  0  0  0
 39 20  1  0  0  0
 40 17  2  0  0  0
 41 18  1  0  0  0
 42  7  1  0  0  0
 42 49  2  0  0  0
 43  8  1  0  0  0
 43 49  1  0  0  0
 44 13  1  0  0  0
 44 46  2  0  0  0
 45 14  2  0  0  0
 45 33  1  0  0  0
 46 15  1  0  0  0
 47 45  1  0  0  0
 48 40  1  0  0  0
 48 41  2  0  0  0
 49 35  1  0  0  0
M  END
$$$$
