JZE
  CCTOOLS-0919241040

 75 78  0  0  0  0  0  0  0  0999 V2000
   -8.9750   -3.0030   -0.1090 C   0  0  0  0  0
   -9.7400   -0.5680    1.1480 N   0  0  0  0  0
   -8.3320   -2.6240    0.8510 O   0  0  0  0  0
   -5.5970    1.4020    3.4160 CL  0  0  0  0  0
  -10.0810   -2.1800   -0.6270 C   0  0  0  0  0
    9.7410   -0.5500   -1.1800 N   0  0  0  0  0
   -8.6710   -4.1750   -0.7020 O   0  0  0  0  0
   -6.2330    1.4960   -1.9560 CL  0  0  0  0  0
  -10.7900   -2.5880   -1.7600 C   0  0  0  0  0
   -4.8760    2.0080    0.6170 O   0  0  0  0  0
    5.6040    1.5200   -3.3700 CL  0  0  0  0  0
  -11.8240   -1.8140   -2.2390 C   0  0  0  0  0
    4.8840    2.0180   -0.5490 O   0  0  0  0  0
    6.2520    1.4260    2.0000 CL  0  0  0  0  0
  -12.1660   -0.6300   -1.6030 C   0  0  0  0  0
    8.5290   -4.0960    0.6970 O   0  0  0  0  0
  -11.4750   -0.2130   -0.4840 C   0  0  0  0  0
    8.3560   -2.6320   -0.9630 O   0  0  0  0  0
  -10.4330   -0.9830    0.0180 C   0  0  0  0  0
   -8.5090    0.0830    1.0130 C   0  0  0  0  0
   -7.7550    0.3840    2.1400 C   0  0  0  0  0
   -6.5390    1.0270    2.0070 C   0  0  0  0  0
   -8.0380    0.4250   -0.2480 C   0  0  0  0  0
   -6.8220    1.0690   -0.3800 C   0  0  0  0  0
   -6.0720    1.3740    0.7470 C   0  0  0  0  0
   -3.7180    1.1840    0.4620 C   0  0  0  0  0
   -2.4770    2.0690    0.3310 C   0  0  0  0  0
   -1.2370    1.1870    0.1660 C   0  0  0  0  0
    0.0040    2.0710    0.0350 C   0  0  0  0  0
    1.2440    1.1890   -0.1310 C   0  0  0  0  0
    2.4850    2.0740   -0.2620 C   0  0  0  0  0
    3.7240    1.1920   -0.4270 C   0  0  0  0  0
    6.0790    1.3860   -0.7040 C   0  0  0  0  0
    6.5450    1.0870   -1.9770 C   0  0  0  0  0
    7.7590    0.4460   -2.1350 C   0  0  0  0  0
    6.8330    1.0460    0.4100 C   0  0  0  0  0
    8.0470    0.4050    0.2520 C   0  0  0  0  0
    8.5120    0.1000   -1.0200 C   0  0  0  0  0
   10.4380   -1.0010   -0.0670 C   0  0  0  0  0
   11.5050   -0.2660    0.4340 C   0  0  0  0  0
   12.1970   -0.7160    1.5400 C   0  0  0  0  0
   11.8340   -1.9010    2.1610 C   0  0  0  0  0
   10.7780   -2.6440    1.6800 C   0  0  0  0  0
   10.0640   -2.1990    0.5640 C   0  0  0  0  0
    8.9300   -2.9850    0.0480 C   0  0  0  0  0
  -10.1090   -0.7300    2.0300 H   0  0  0  0  0
   10.1060   -0.6860   -2.0680 H   0  0  0  0  0
   -7.9350   -4.6780   -0.3290 H   0  0  0  0  0
  -10.5280   -3.5090   -2.2590 H   0  0  0  0  0
  -12.3710   -2.1300   -3.1150 H   0  0  0  0  0
  -12.9780   -0.0300   -1.9870 H   0  0  0  0  0
    7.7810   -4.5790    0.3200 H   0  0  0  0  0
  -11.7480    0.7100    0.0050 H   0  0  0  0  0
   -8.1190    0.1140    3.1210 H   0  0  0  0  0
   -8.6210    0.1880   -1.1250 H   0  0  0  0  0
   -3.6130    0.5380    1.3340 H   0  0  0  0  0
   -3.8240    0.5720   -0.4330 H   0  0  0  0  0
   -2.5810    2.7150   -0.5400 H   0  0  0  0  0
   -2.3700    2.6810    1.2270 H   0  0  0  0  0
   -1.1320    0.5400    1.0370 H   0  0  0  0  0
   -1.3440    0.5750   -0.7300 H   0  0  0  0  0
   -0.1000    2.7180   -0.8360 H   0  0  0  0  0
    0.1110    2.6830    0.9310 H   0  0  0  0  0
    1.3480    0.5430    0.7410 H   0  0  0  0  0
    1.1370    0.5770   -1.0260 H   0  0  0  0  0
    2.3800    2.7200   -1.1330 H   0  0  0  0  0
    2.5920    2.6860    0.6340 H   0  0  0  0  0
    3.6180    0.5800   -1.3230 H   0  0  0  0  0
    3.8290    0.5450    0.4440 H   0  0  0  0  0
    8.1220    0.2130   -3.1250 H   0  0  0  0  0
    8.6350    0.1400    1.1190 H   0  0  0  0  0
   11.7950    0.6590   -0.0440 H   0  0  0  0  0
   13.0260   -0.1410    1.9240 H   0  0  0  0  0
   12.3820   -2.2430    3.0260 H   0  0  0  0  0
   10.5000   -3.5660    2.1670 H   0  0  0  0  0
  1  7  1  0  0  0
  2 20  1  0  0  0
  2 46  1  0  0  0
  3  1  2  0  0  0
  5  1  1  0  0  0
  5 19  1  0  0  0
  6 39  1  0  0  0
  6 47  1  0  0  0
  7 48  1  0  0  0
  9  5  2  0  0  0
  9 49  1  0  0  0
 10 26  1  0  0  0
 11 34  1  0  0  0
 12  9  1  0  0  0
 12 15  2  0  0  0
 12 50  1  0  0  0
 13 33  1  0  0  0
 14 36  1  0  0  0
 15 17  1  0  0  0
 15 51  1  0  0  0
 16 52  1  0  0  0
 17 19  2  0  0  0
 17 53  1  0  0  0
 18 45  2  0  0  0
 19  2  1  0  0  0
 20 21  2  0  0  0
 20 23  1  0  0  0
 21 22  1  0  0  0
 21 54  1  0  0  0
 22  4  1  0  0  0
 22 25  2  0  0  0
 23 24  2  0  0  0
 23 55  1  0  0  0
 24  8  1  0  0  0
 24 25  1  0  0  0
 25 10  1  0  0  0
 26 27  1  0  0  0
 26 56  1  0  0  0
 26 57  1  0  0  0
 27 28  1  0  0  0
 27 58  1  0  0  0
 27 59  1  0  0  0
 28 29  1  0  0  0
 28 60  1  0  0  0
 28 61  1  0  0  0
 29 30  1  0  0  0
 29 62  1  0  0  0
 29 63  1  0  0  0
 30 31  1  0  0  0
 30 64  1  0  0  0
 30 65  1  0  0  0
 31 32  1  0  0  0
 31 66  1  0  0  0
 31 67  1  0  0  0
 32 13  1  0  0  0
 32 68  1  0  0  0
 32 69  1  0  0  0
 33 34  2  0  0  0
 33 36  1  0  0  0
 34 35  1  0  0  0
 35 38  2  0  0  0
 35 70  1  0  0  0
 36 37  2  0  0  0
 37 38  1  0  0  0
 37 71  1  0  0  0
 38  6  1  0  0  0
 39 44  1  0  0  0
 40 39  2  0  0  0
 40 41  1  0  0  0
 40 72  1  0  0  0
 41 42  2  0  0  0
 41 73  1  0  0  0
 42 43  1  0  0  0
 42 74  1  0  0  0
 43 75  1  0  0  0
 44 43  2  0  0  0
 44 45  1  0  0  0
 45 16  1  0  0  0
M  END
$$$$
