K7J
  CCTOOLS-1004241124

 72 73  0  0  1  0  0  0  0  0999 V2000
   -6.7290   -0.5090    0.4880 C   0  0  0  0  0
   -6.5250   -1.1090    1.5220 O   0  0  0  0  0
   -8.1390   -0.1560    0.0880 C   0  0  0  0  0
   -9.1140   -0.6630    1.1520 C   0  0  0  0  0
  -10.5230   -0.3100    0.7520 C   0  0  0  0  0
  -10.7270    0.2870   -0.2790 O   0  0  0  0  0
  -11.5520   -0.6580    1.5410 O   0  0  0  0  0
   -5.6960   -0.1550   -0.3010 N   0  0  0  0  0
   -4.3260   -0.4990    0.0870 C   0  0  0  0  0
   -3.3640    0.4690   -0.5520 C   0  0  0  0  0
   -3.7820    1.3590   -1.2630 O   0  0  0  0  0
   -4.0050   -1.9200   -0.3800 C   0  0  0  0  0
   -2.0400    0.3470   -0.3340 N   0  0  0  0  0
   -1.1050    1.2880   -0.9560 C   0  0  0  0  0
    0.2470    0.6370   -1.0910 C   0  0  0  0  0
    0.4140   -0.5010   -0.7070 O   0  0  0  0  0
   -0.9840    2.5380   -0.0830 C   0  0  0  0  0
    1.2720    1.3200   -1.6400 N   0  0  0  0  0
    2.6350    0.8070   -1.8380 C   0  0  0  0  0
    3.2520    0.4650   -0.5060 C   0  0  0  0  0
    2.6200    0.6310    0.5160 O   0  0  0  0  0
    3.4490    1.9220   -2.5260 C   0  0  0  0  0
    2.3510    2.7950   -3.1900 C   0  0  0  0  0
    1.2090    2.7020   -2.1480 C   0  0  0  0  0
    5.7270    0.9000    1.4570 C   0  0  0  0  0
    6.3120    0.5760    2.7190 O   0  0  0  0  0
    5.1060   -0.3570    0.8450 C   0  0  0  0  0
    4.5060   -0.0250   -0.4500 N   0  0  0  0  0
    6.1910   -1.4180    0.6470 C   0  0  0  0  0
    5.5600   -2.6970    0.1610 C   0  0  0  0  0
    5.4160   -2.9240   -1.1960 C   0  0  0  0  0
    5.1310   -3.6460    1.0700 C   0  0  0  0  0
    4.8380   -4.0980   -1.6420 C   0  0  0  0  0
    4.5520   -4.8190    0.6230 C   0  0  0  0  0
    4.4030   -5.0440   -0.7330 C   0  0  0  0  0
    4.6420    1.9610    1.6540 C   0  0  0  0  0
    5.3970    3.4910    2.2370 CL  0  0  0  0  0
   -8.2300    0.9270   -0.0020 H   0  0  0  0  0
   -8.3720   -0.6210   -0.8700 H   0  0  0  0  0
   -9.0220   -1.7460    1.2420 H   0  0  0  0  0
   -8.8800   -0.1980    2.1100 H   0  0  0  0  0
  -12.4370   -0.4090    1.2420 H   0  0  0  0  0
   -5.8590    0.3270   -1.1270 H   0  0  0  0  0
   -4.2310   -0.4430    1.1720 H   0  0  0  0  0
   -2.9860   -2.1760   -0.0900 H   0  0  0  0  0
   -4.7000   -2.6200    0.0830 H   0  0  0  0  0
   -4.1000   -1.9760   -1.4640 H   0  0  0  0  0
   -1.7060   -0.3650    0.2340 H   0  0  0  0  0
   -1.4740    1.5680   -1.9430 H   0  0  0  0  0
   -0.2890    3.2390   -0.5450 H   0  0  0  0  0
   -1.9620    3.0090    0.0150 H   0  0  0  0  0
   -0.6150    2.2580    0.9040 H   0  0  0  0  0
    2.6100   -0.0790   -2.4720 H   0  0  0  0  0
    4.0100    2.5000   -1.7910 H   0  0  0  0  0
    4.1170    1.5030   -3.2790 H   0  0  0  0  0
    2.6890    3.8240   -3.3090 H   0  0  0  0  0
    2.0430    2.3730   -4.1460 H   0  0  0  0  0
    0.2470    2.8870   -2.6270 H   0  0  0  0  0
    1.3720    3.4120   -1.3370 H   0  0  0  0  0
    7.0100   -0.0920    2.6700 H   0  0  0  0  0
    4.3370   -0.7440    1.5130 H   0  0  0  0  0
    5.0120   -0.1580   -1.2670 H   0  0  0  0  0
    6.9130   -1.0660   -0.0890 H   0  0  0  0  0
    6.6970   -1.6000    1.5950 H   0  0  0  0  0
    5.7550   -2.1850   -1.9060 H   0  0  0  0  0
    5.2470   -3.4700    2.1290 H   0  0  0  0  0
    4.7250   -4.2750   -2.7010 H   0  0  0  0  0
    4.2170   -5.5600    1.3330 H   0  0  0  0  0
    3.9510   -5.9600   -1.0820 H   0  0  0  0  0
    6.4970    1.2870    0.7880 H   0  0  0  0  0
    4.1360    2.1430    0.7060 H   0  0  0  0  0
    3.9200    1.6090    2.3900 H   0  0  0  0  0
  1  3  1  0  0  0
  2  1  2  0  0  0
  3  4  1  0  0  0
  3 38  1  0  0  0
  3 39  1  0  0  0
  4  5  1  0  0  0
  4 40  1  0  0  0
  4 41  1  0  0  0
  5  7  1  0  0  0
  6  5  2  0  0  0
  7 42  1  0  0  0
  8  1  1  0  0  0
  8 43  1  0  0  0
  9 12  1  0  0  0
  9  8  1  0  0  0
  9 44  1  0  0  0
 10 11  2  0  0  0
 10  9  1  0  0  0
 12 45  1  0  0  0
 12 46  1  0  0  0
 12 47  1  0  0  0
 13 10  1  0  0  0
 13 48  1  0  0  0
 14 13  1  0  0  0
 14 49  1  0  0  0
 15 14  1  0  0  0
 16 15  2  0  0  0
 17 14  1  0  0  0
 17 50  1  0  0  0
 17 51  1  0  0  0
 17 52  1  0  0  0
 18 24  1  0  0  0
 18 15  1  0  0  0
 19 18  1  0  0  0
 19 53  1  0  0  0
 20 19  1  0  0  0
 21 20  2  0  0  0
 22 19  1  0  0  0
 22 23  1  0  0  0
 22 54  1  0  0  0
 22 55  1  0  0  0
 23 24  1  0  0  0
 23 56  1  0  0  0
 23 57  1  0  0  0
 24 58  1  0  0  0
 24 59  1  0  0  0
 25 27  1  0  0  0
 25 70  1  0  0  0
 26 25  1  0  0  0
 26 60  1  0  0  0
 27 29  1  0  0  0
 27 28  1  0  0  0
 27 61  1  0  0  0
 28 20  1  0  0  0
 28 62  1  0  0  0
 29 30  1  0  0  0
 29 63  1  0  0  0
 29 64  1  0  0  0
 30 31  2  0  0  0
 30 32  1  0  0  0
 31 33  1  0  0  0
 31 65  1  0  0  0
 32 34  2  0  0  0
 32 66  1  0  0  0
 33 35  2  0  0  0
 33 67  1  0  0  0
 34 35  1  0  0  0
 34 68  1  0  0  0
 35 69  1  0  0  0
 36 25  1  0  0  0
 36 71  1  0  0  0
 36 72  1  0  0  0
 36 37  1  0  0  0
M  END
$$$$
