KDG
  CCTOOLS-1004241124

 22 21  0  0  1  0  0  0  0  0999 V2000
   -0.2070   -0.1890    4.4830 O   0  0  0  0  0
    0.5030    0.1290    3.2850 C   0  0  0  0  0
   -0.3690   -0.1990    2.0720 C   0  0  0  0  0
   -1.5730    0.5670    2.1290 O   0  0  0  0  0
    0.3920    0.1420    0.7890 C   0  0  0  0  0
    1.5960   -0.6250    0.7320 O   0  0  0  0  0
   -0.4800   -0.1860   -0.4230 C   0  0  0  0  0
    1.3860    0.6040   -1.6230 O   0  0  0  0  0
    0.2690    0.1490   -1.6870 C   0  0  0  0  0
   -0.3670   -0.0800   -3.0150 C   0  0  0  0  0
    0.3020    0.2200   -4.1430 O   0  0  0  0  0
   -1.4880   -0.5370   -3.0790 O   0  0  0  0  0
    0.3750    0.0320    5.2220 H   0  0  0  0  0
    0.7480    1.1910    3.2800 H   0  0  0  0  0
    1.4210   -0.4550    3.2410 H   0  0  0  0  0
   -0.6140   -1.2610    2.0770 H   0  0  0  0  0
   -1.3120    1.4990    2.1220 H   0  0  0  0  0
    0.6370    1.2040    0.7840 H   0  0  0  0  0
    1.3350   -1.5560    0.7390 H   0  0  0  0  0
   -0.7250   -1.2480   -0.4180 H   0  0  0  0  0
   -1.3980    0.3980   -0.3800 H   0  0  0  0  0
   -0.1100    0.0710   -5.0050 H   0  0  0  0  0
  1  2  1  0  0  0
  1 13  1  0  0  0
  2  3  1  0  0  0
  2 14  1  0  0  0
  2 15  1  0  0  0
  3  4  1  0  0  0
  3  5  1  0  0  0
  3 16  1  0  0  0
  4 17  1  0  0  0
  5  6  1  0  0  0
  5  7  1  0  0  0
  5 18  1  0  0  0
  6 19  1  0  0  0
  7  9  1  0  0  0
  7 20  1  0  0  0
  7 21  1  0  0  0
  8  9  2  0  0  0
  9 10  1  0  0  0
 10 11  1  0  0  0
 10 12  2  0  0  0
 11 22  1  0  0  0
M  END
$$$$
