KH1
  CCTOOLS-0919241042

 81 83  0  0  1  0  0  0  0  0999 V2000
    3.8800   -0.3730   -6.8960 O   0  0  0  0  0
    1.0040    1.8120   -5.8620 C   0  0  0  0  0
    2.0650    1.2150   -6.7920 C   0  0  0  0  0
    2.7980    0.0780   -6.0790 C   0  0  0  0  0
    1.8320   -1.0820   -5.8240 C   0  0  0  0  0
    0.6670   -0.5640   -5.0040 C   0  0  0  0  0
    0.2120   -1.2300   -3.9230 C   0  0  0  0  0
   -0.9160   -0.6970   -3.1570 C   0  0  0  0  0
   -1.3660   -1.3550   -2.0890 C   0  0  0  0  0
   -0.7500   -2.6640   -1.6180 C   0  0  0  0  0
    0.0510    0.7020   -5.4500 C   0  0  0  0  0
   -0.4340   -2.6070   -0.1250 C   0  0  0  0  0
   -1.6270   -2.0830    0.6910 C   0  0  0  0  0
   -1.9740   -0.7070    0.1850 C   0  0  0  0  0
   -2.5170   -0.8580   -1.2650 C   0  0  0  0  0
   -3.0040    0.5640   -1.5520 C   0  0  0  0  0
   -3.7040    0.9620   -0.2220 C   0  0  0  0  0
   -3.0690    0.0810    0.8840 C   0  0  0  0  0
   -0.7030    0.1420    0.1220 C   0  0  0  0  0
   -1.2700    0.8680   -5.4840 C   0  0  0  0  0
    1.6340    2.3660   -4.7050 O   0  0  0  0  0
   -2.4710    0.9600    1.9850 C   0  0  0  0  0
   -1.8340    0.1340    2.9610 O   0  0  0  0  0
   -0.7590    0.8980    3.5110 C   0  0  0  0  0
   -0.0310    0.0660    4.5690 C   0  0  0  0  0
    1.7660    0.1030    6.3030 C   0  0  0  0  0
    0.8210   -0.0620    7.3610 O   0  0  0  0  0
    2.9820    0.8730    6.8220 C   0  0  0  0  0
    2.2110   -1.2690    5.7950 C   0  0  0  0  0
   -3.5840    1.7710    2.6510 C   0  0  0  0  0
    1.1190    0.8840    5.1580 C   0  0  0  0  0
    2.8590   -2.0510    6.9400 C   0  0  0  0  0
    2.5420    2.2580    7.3010 C   0  0  0  0  0
    4.3190   -1.0850   -6.4100 H   0  0  0  0  0
    0.4520    2.5910   -6.3870 H   0  0  0  0  0
    2.7800    1.9890   -7.0700 H   0  0  0  0  0
    1.5830    0.8290   -7.6900 H   0  0  0  0  0
    3.1890    0.4390   -5.1270 H   0  0  0  0  0
    2.3440   -1.8730   -5.2750 H   0  0  0  0  0
    1.4680   -1.4720   -6.7750 H   0  0  0  0  0
    0.6790   -2.1560   -3.6230 H   0  0  0  0  0
   -1.3830    0.2290   -3.4570 H   0  0  0  0  0
   -1.4490   -3.4780   -1.8060 H   0  0  0  0  0
    0.1700   -2.8480   -2.1730 H   0  0  0  0  0
   -0.1770   -3.6080    0.2220 H   0  0  0  0  0
    0.4200   -1.9480    0.0320 H   0  0  0  0  0
   -2.4840   -2.7440    0.5570 H   0  0  0  0  0
   -1.3600   -2.0310    1.7460 H   0  0  0  0  0
   -3.3470   -1.5640   -1.2970 H   0  0  0  0  0
   -3.7140    0.5690   -2.3790 H   0  0  0  0  0
   -2.1630    1.2250   -1.7590 H   0  0  0  0  0
   -4.7740    0.7650   -0.2890 H   0  0  0  0  0
   -3.5300    2.0160   -0.0080 H   0  0  0  0  0
   -3.8140   -0.5940    1.3040 H   0  0  0  0  0
    0.0180   -0.3310   -0.5420 H   0  0  0  0  0
   -0.9490    1.1350   -0.2540 H   0  0  0  0  0
   -0.2750    0.2290    1.1210 H   0  0  0  0  0
   -1.9230    0.0610   -5.1850 H   0  0  0  0  0
   -1.6880    1.8090   -5.8090 H   0  0  0  0  0
    0.9310    2.7290   -4.1500 H   0  0  0  0  0
   -1.7380    1.6390    1.5490 H   0  0  0  0  0
   -1.1550    1.8040    3.9700 H   0  0  0  0  0
   -0.0620    1.1670    2.7170 H   0  0  0  0  0
    0.3630   -0.8390    4.1100 H   0  0  0  0  0
   -0.7290   -0.2020    5.3620 H   0  0  0  0  0
    0.0720   -0.5510    6.9920 H   0  0  0  0  0
    3.4310    0.3270    7.6510 H   0  0  0  0  0
    3.7130    0.9810    6.0200 H   0  0  0  0  0
    2.9330   -1.1430    4.9880 H   0  0  0  0  0
    1.3450   -1.8180    5.4250 H   0  0  0  0  0
   -4.3180    1.0920    3.0870 H   0  0  0  0  0
   -3.1580    2.3970    3.4350 H   0  0  0  0  0
   -4.0700    2.4010    1.9060 H   0  0  0  0  0
    0.7350    1.8320    5.5360 H   0  0  0  0  0
    1.8610    1.0760    4.3830 H   0  0  0  0  0
    3.1750   -3.0290    6.5790 H   0  0  0  0  0
    3.7250   -1.5020    7.3100 H   0  0  0  0  0
    2.1370   -2.1780    7.7470 H   0  0  0  0  0
    3.3870    2.7670    7.7660 H   0  0  0  0  0
    2.1890    2.8410    6.4510 H   0  0  0  0  0
    1.7370    2.1520    8.0290 H   0  0  0  0  0
  1  4  1  0  0  0
  1 34  1  0  0  0
  2  3  1  0  0  0
  2 11  1  0  0  0
  2 21  1  0  0  0
  2 35  1  0  0  0
  3  4  1  0  0  0
  3 36  1  0  0  0
  3 37  1  0  0  0
  4  5  1  0  0  0
  4 38  1  0  0  0
  5  6  1  0  0  0
  5 39  1  0  0  0
  5 40  1  0  0  0
  6  7  2  0  0  0
  6 11  1  0  0  0
  7  8  1  0  0  0
  7 41  1  0  0  0
  8  9  2  0  0  0
  8 42  1  0  0  0
  9 10  1  0  0  0
  9 15  1  0  0  0
 10 12  1  0  0  0
 10 43  1  0  0  0
 10 44  1  0  0  0
 11 20  2  0  0  0
 12 13  1  0  0  0
 12 45  1  0  0  0
 12 46  1  0  0  0
 13 14  1  0  0  0
 13 47  1  0  0  0
 13 48  1  0  0  0
 14 15  1  0  0  0
 14 18  1  0  0  0
 14 19  1  0  0  0
 15 16  1  0  0  0
 15 49  1  0  0  0
 16 17  1  0  0  0
 16 50  1  0  0  0
 16 51  1  0  0  0
 17 18  1  0  0  0
 17 52  1  0  0  0
 17 53  1  0  0  0
 18 22  1  0  0  0
 18 54  1  0  0  0
 19 55  1  0  0  0
 19 56  1  0  0  0
 19 57  1  0  0  0
 20 58  1  0  0  0
 20 59  1  0  0  0
 21 60  1  0  0  0
 22 23  1  0  0  0
 22 30  1  0  0  0
 22 61  1  0  0  0
 23 24  1  0  0  0
 24 25  1  0  0  0
 24 62  1  0  0  0
 24 63  1  0  0  0
 25 31  1  0  0  0
 25 64  1  0  0  0
 25 65  1  0  0  0
 26 27  1  0  0  0
 26 28  1  0  0  0
 26 29  1  0  0  0
 26 31  1  0  0  0
 27 66  1  0  0  0
 28 33  1  0  0  0
 28 67  1  0  0  0
 28 68  1  0  0  0
 29 32  1  0  0  0
 29 69  1  0  0  0
 29 70  1  0  0  0
 30 71  1  0  0  0
 30 72  1  0  0  0
 30 73  1  0  0  0
 31 74  1  0  0  0
 31 75  1  0  0  0
 32 76  1  0  0  0
 32 77  1  0  0  0
 32 78  1  0  0  0
 33 79  1  0  0  0
 33 80  1  0  0  0
 33 81  1  0  0  0
M  END
$$$$
