KN2
  CCTOOLS-0919241043

 28 30  0  0  0  0  0  0  0  0999 V2000
    2.0110    2.0760    1.0700 O   0  0  0  0  0
    2.3100    0.8910    0.4780 C   0  0  0  0  0
    3.5910    0.3740    0.5690 C   0  0  0  0  0
    3.8950   -0.8370   -0.0360 C   0  0  0  0  0
    5.1530   -1.3430    0.0540 O   0  0  0  0  0
    2.9170   -1.5350   -0.7340 C   0  0  0  0  0
    1.6380   -1.0280   -0.8290 C   0  0  0  0  0
    1.3230    0.1860   -0.2200 C   0  0  0  0  0
   -0.0520    0.7300   -0.3150 C   0  0  0  0  0
   -1.2960   -0.0110   -0.0790 C   0  0  0  0  0
   -1.5830   -1.3310    0.2760 C   0  0  0  0  0
   -2.8800   -1.7290    0.4240 C   0  0  0  0  0
   -3.9240   -0.8270    0.2240 C   0  0  0  0  0
   -5.2100   -1.2400    0.3750 O   0  0  0  0  0
   -3.6630    0.4830   -0.1280 C   0  0  0  0  0
   -2.3450    0.9050   -0.2830 C   0  0  0  0  0
   -1.7690    2.1040   -0.6160 N   0  0  0  0  0
   -0.3780    1.9620   -0.6200 N   0  0  0  0  0
    2.1480    2.8460    0.5010 H   0  0  0  0  0
    4.3540    0.9130    1.1100 H   0  0  0  0  0
    5.2930   -1.9150    0.8210 H   0  0  0  0  0
    3.1590   -2.4770   -1.2030 H   0  0  0  0  0
    0.8800   -1.5720   -1.3720 H   0  0  0  0  0
   -0.7800   -2.0360    0.4320 H   0  0  0  0  0
   -3.1000   -2.7500    0.6980 H   0  0  0  0  0
   -5.5530   -1.1360    1.2740 H   0  0  0  0  0
   -4.4760    1.1760   -0.2820 H   0  0  0  0  0
   -2.2500    2.9220   -0.8130 H   0  0  0  0  0
  1  2  1  0  0  0
  1 19  1  0  0  0
  2  3  2  0  0  0
  2  8  1  0  0  0
  3  4  1  0  0  0
  3 20  1  0  0  0
  4  5  1  0  0  0
  4  6  2  0  0  0
  5 21  1  0  0  0
  6  7  1  0  0  0
  6 22  1  0  0  0
  7  8  2  0  0  0
  7 23  1  0  0  0
  8  9  1  0  0  0
  9 18  2  0  0  0
  9 10  1  0  0  0
 10 11  2  0  0  0
 10 16  1  0  0  0
 11 12  1  0  0  0
 11 24  1  0  0  0
 12 13  2  0  0  0
 12 25  1  0  0  0
 13 15  1  0  0  0
 13 14  1  0  0  0
 14 26  1  0  0  0
 15 16  2  0  0  0
 15 27  1  0  0  0
 16 17  1  0  0  0
 17 18  1  0  0  0
 17 28  1  0  0  0
M  END
$$$$
