KPG
  CCTOOLS-0919241043

 30 29  0  0  1  0  0  0  0  0999 V2000
   -3.8620   -0.5120   -0.0660 P   0  0  0  0  0
    4.1080   -0.9390    0.5240 C   0  0  0  0  0
    3.3340    0.1460   -0.2280 C   0  0  0  0  0
    3.4300   -0.0890   -1.6350 O   0  0  0  0  0
    1.8640    0.1100    0.1950 C   0  0  0  0  0
    1.7680    0.3450    1.6010 O   0  0  0  0  0
    1.0900    1.1950   -0.5570 C   0  0  0  0  0
    1.7150    2.4620   -0.3410 O   0  0  0  0  0
   -0.3280    1.2420   -0.0520 C   0  0  0  0  0
   -0.6810    2.1390    0.6760 O   0  0  0  0  0
   -1.3080    0.1700   -0.4540 C   0  0  0  0  0
   -2.5760    0.4330    0.1480 O   0  0  0  0  0
    3.6310   -2.2260    0.1270 O   0  0  0  0  0
    5.4990   -0.8310    0.2170 O   0  0  0  0  0
   -4.1270   -0.6630   -1.5140 O   0  0  0  0  0
   -3.5780   -1.9590    0.5810 O   0  0  0  0  0
   -5.1420    0.1530    0.6480 O   0  0  0  0  0
    3.7560    1.1220    0.0070 H   0  0  0  0  0
    3.0730   -0.9420   -1.9160 H   0  0  0  0  0
    1.4420   -0.8670   -0.0400 H   0  0  0  0  0
    2.1250    1.1980    1.8830 H   0  0  0  0  0
    1.0890    0.9680   -1.6230 H   0  0  0  0  0
    1.7520    2.7300    0.5870 H   0  0  0  0  0
   -1.4150    0.1640   -1.5390 H   0  0  0  0  0
   -0.9410   -0.8010   -0.1200 H   0  0  0  0  0
    3.7290   -2.4080   -0.8180 H   0  0  0  0  0
    6.0520   -1.4900    0.6600 H   0  0  0  0  0
   -3.3960   -1.9360    1.5310 H   0  0  0  0  0
   -5.9550   -0.3640    0.5590 H   0  0  0  0  0
    3.9610   -0.8120    1.5970 H   0  0  0  0  0
  1 17  1  0  0  0
  1 12  1  0  0  0
  2  3  1  0  0  0
  2 13  1  0  0  0
  2 30  1  0  0  0
  3  5  1  0  0  0
  3 18  1  0  0  0
  4  3  1  0  0  0
  4 19  1  0  0  0
  5  6  1  0  0  0
  5 20  1  0  0  0
  6 21  1  0  0  0
  7  5  1  0  0  0
  7  8  1  0  0  0
  7  9  1  0  0  0
  7 22  1  0  0  0
  8 23  1  0  0  0
  9 10  2  0  0  0
 11  9  1  0  0  0
 11 24  1  0  0  0
 11 25  1  0  0  0
 12 11  1  0  0  0
 13 26  1  0  0  0
 14  2  1  0  0  0
 14 27  1  0  0  0
 15  1  2  0  0  0
 16  1  1  0  0  0
 16 28  1  0  0  0
 17 29  1  0  0  0
M  END
$$$$
