KWT
  CCTOOLS-1004241126

 55 59  0  0  1  0  0  0  0  0999 V2000
    0.9950   -0.2240    1.9290 C   0  0  0  0  0
    0.7910   -0.5540    3.3300 O   0  0  0  0  0
   -0.1050   -0.7940    1.0370 C   0  0  0  0  0
    0.9730    1.3020    1.8270 C   0  0  0  0  0
   -0.4230   -0.8070    3.8930 C   0  0  0  0  0
   -0.5450   -1.3680    4.9640 O   0  0  0  0  0
   -1.5760   -0.3480    3.0920 C   0  0  0  0  0
   -1.3820   -0.3360    1.6820 C   0  0  0  0  0
   -2.8380    0.0960    3.2880 C   0  0  0  0  0
   -2.4920    0.1710    1.1140 C   0  0  0  0  0
   -2.4620    0.3590   -0.3410 C   0  0  0  0  0
   -3.3810    0.3980    2.0830 O   0  0  0  0  0
   -3.4720    0.6330   -0.9670 O   0  0  0  0  0
   -1.1370    0.1940   -0.9990 C   0  0  0  0  0
    2.3270    0.1180   -0.4340 O   0  0  0  0  0
    1.2440   -0.5500   -1.1350 C   0  0  0  0  0
    3.5730   -0.3750   -0.4950 C   0  0  0  0  0
   -0.0590   -0.3340   -0.4020 C   0  0  0  0  0
   -1.0340    0.6790   -2.4070 C   0  0  0  0  0
   -0.0490   -2.3250    1.0850 C   0  0  0  0  0
    1.2770   -0.0600   -2.5820 C   0  0  0  0  0
   -0.0910   -0.2610   -3.1940 C   0  0  0  0  0
   -0.5320   -1.7190   -3.0790 C   0  0  0  0  0
   -0.2740    0.2020   -4.6130 C   0  0  0  0  0
   -2.3000    0.6410   -3.2650 C   0  0  0  0  0
   -1.7320    0.6420   -4.7120 C   0  0  0  0  0
    0.5590    0.2220   -5.4840 O   0  0  0  0  0
    3.7940   -1.3770   -1.1330 O   0  0  0  0  0
    4.6960    0.3180    0.2300 C   0  0  0  0  0
    1.9820    1.8510    2.6760 O   0  0  0  0  0
    1.9110    3.2720    2.5370 C   0  0  0  0  0
    1.9560   -0.6040    1.6250 H   0  0  0  0  0
   -0.0030    1.6720    2.1380 H   0  0  0  0  0
    1.1630    1.6000    0.7960 H   0  0  0  0  0
   -3.3310    0.1970    4.2440 H   0  0  0  0  0
    1.4700   -1.6210   -1.1350 H   0  0  0  0  0
   -0.6260    1.6950   -2.4080 H   0  0  0  0  0
   -0.0820   -2.6570    2.1230 H   0  0  0  0  0
   -0.9020   -2.7370    0.5450 H   0  0  0  0  0
    0.8750   -2.6700    0.6230 H   0  0  0  0  0
    1.5460    0.9980   -2.6070 H   0  0  0  0  0
    2.0220   -0.6300   -3.1450 H   0  0  0  0  0
    0.1880   -2.3570   -3.5910 H   0  0  0  0  0
   -0.5850   -2.0000   -2.0280 H   0  0  0  0  0
   -1.5130   -1.8380   -3.5380 H   0  0  0  0  0
   -2.8860   -0.2550   -3.0740 H   0  0  0  0  0
   -2.9070    1.5330   -3.0930 H   0  0  0  0  0
   -2.2930   -0.0560   -5.3330 H   0  0  0  0  0
   -1.7920    1.6450   -5.1350 H   0  0  0  0  0
    5.6260   -0.2240    0.0650 H   0  0  0  0  0
    4.7980    1.3360   -0.1450 H   0  0  0  0  0
    4.4760    0.3460    1.2970 H   0  0  0  0  0
    2.6670    3.7370    3.1700 H   0  0  0  0  0
    2.0900    3.5440    1.4970 H   0  0  0  0  0
    0.9220    3.6170    2.8390 H   0  0  0  0  0
  1  2  1  0  0  0
  1  3  1  0  0  0
  1  4  1  0  0  0
  1 32  1  0  0  0
  2  5  1  0  0  0
  3  8  1  0  0  0
  3 18  1  0  0  0
  3 20  1  0  0  0
  4 30  1  0  0  0
  4 33  1  0  0  0
  4 34  1  0  0  0
  5  6  2  0  0  0
  5  7  1  0  0  0
  7  8  1  0  0  0
  7  9  2  0  0  0
  8 10  2  0  0  0
  9 12  1  0  0  0
  9 35  1  0  0  0
 10 11  1  0  0  0
 10 12  1  0  0  0
 11 13  2  0  0  0
 11 14  1  0  0  0
 14 18  2  0  0  0
 14 19  1  0  0  0
 15 16  1  0  0  0
 15 17  1  0  0  0
 16 18  1  0  0  0
 16 21  1  0  0  0
 16 36  1  0  0  0
 17 28  2  0  0  0
 17 29  1  0  0  0
 19 22  1  0  0  0
 19 25  1  0  0  0
 19 37  1  0  0  0
 20 38  1  0  0  0
 20 39  1  0  0  0
 20 40  1  0  0  0
 21 22  1  0  0  0
 21 41  1  0  0  0
 21 42  1  0  0  0
 22 23  1  0  0  0
 22 24  1  0  0  0
 23 43  1  0  0  0
 23 44  1  0  0  0
 23 45  1  0  0  0
 24 26  1  0  0  0
 24 27  2  0  0  0
 25 26  1  0  0  0
 25 46  1  0  0  0
 25 47  1  0  0  0
 26 48  1  0  0  0
 26 49  1  0  0  0
 29 50  1  0  0  0
 29 51  1  0  0  0
 29 52  1  0  0  0
 30 31  1  0  0  0
 31 53  1  0  0  0
 31 54  1  0  0  0
 31 55  1  0  0  0
M  END
$$$$
