L07
  CCTOOLS-0919241027

 30 32  0  0  0  0  0  0  0  0999 V2000
   -4.3080    0.3300    0.8020 C   0  0  0  0  0
   -5.8240    0.4500    0.6340 C   0  0  0  0  0
    3.9470   -0.3370    0.2660 C   0  0  0  0  0
    4.4510    0.9300    0.2780 C   0  0  0  0  0
    3.6150    2.0340    0.1500 C   0  0  0  0  0
    2.2670    1.8770    0.0090 C   0  0  0  0  0
   -1.5250   -0.9860   -0.3050 N   0  0  0  0  0
    2.0420   -1.7700    0.1030 N   0  0  0  0  0
    0.3070   -3.3050   -0.0330 N   0  0  0  0  0
    1.7190    0.5900   -0.0060 C   0  0  0  0  0
    0.2850    0.3680   -0.1540 C   0  0  0  0  0
   -0.1910   -0.9410   -0.1620 C   0  0  0  0  0
   -2.1550    0.1240   -0.4110 C   0  0  0  0  0
   -3.6480    0.2420   -0.5760 C   0  0  0  0  0
    2.5660   -0.5370    0.1240 C   0  0  0  0  0
    0.7580   -1.9960   -0.0230 C   0  0  0  0  0
   -1.0860    1.4530   -0.3400 S   0  0  0  0  0
   -3.9310    1.2050    1.3300 H   0  0  0  0  0
   -4.0760   -0.5680    1.3740 H   0  0  0  0  0
   -6.0570    1.3480    0.0620 H   0  0  0  0  0
   -6.2020   -0.4260    0.1050 H   0  0  0  0  0
   -6.2950    0.5130    1.6150 H   0  0  0  0  0
    4.6100   -1.1840    0.3620 H   0  0  0  0  0
    5.5150    1.0780    0.3880 H   0  0  0  0  0
    4.0370    3.0280    0.1630 H   0  0  0  0  0
    1.6260    2.7400   -0.0890 H   0  0  0  0  0
    0.9390   -4.0360    0.0520 H   0  0  0  0  0
   -0.6400   -3.4910   -0.1260 H   0  0  0  0  0
   -4.0260   -0.6340   -1.1040 H   0  0  0  0  0
   -3.8810    1.1400   -1.1480 H   0  0  0  0  0
  1  2  1  0  0  0
  1 18  1  0  0  0
  1 19  1  0  0  0
  2 20  1  0  0  0
  2 21  1  0  0  0
  2 22  1  0  0  0
  3 15  1  0  0  0
  3 23  1  0  0  0
  4  3  2  0  0  0
  4 24  1  0  0  0
  5  4  1  0  0  0
  5 25  1  0  0  0
  6  5  2  0  0  0
  6 10  1  0  0  0
  6 26  1  0  0  0
  7 12  1  0  0  0
  8 16  1  0  0  0
  9 27  1  0  0  0
  9 28  1  0  0  0
 10 11  2  0  0  0
 10 15  1  0  0  0
 11 12  1  0  0  0
 12 16  2  0  0  0
 13  7  2  0  0  0
 14  1  1  0  0  0
 14 13  1  0  0  0
 14 29  1  0  0  0
 14 30  1  0  0  0
 15  8  2  0  0  0
 16  9  1  0  0  0
 17 13  1  0  0  0
 17 11  1  0  0  0
M  END
$$$$
