L09
  CCTOOLS-0919241027

 50 52  0  0  0  0  0  0  0  0999 V2000
   -0.2760    1.0230    8.3190 C   0  0  0  0  0
    0.3080    1.0670    6.9060 C   0  0  0  0  0
    0.3570    2.5160    6.4180 C   0  0  0  0  0
    1.7230    0.4850    6.9210 C   0  0  0  0  0
   -0.5580    0.2540    5.9790 C   0  0  0  0  0
   -0.3390    0.0630    4.6120 C   0  0  0  0  0
   -1.3390   -0.7280    4.1360 C   0  0  0  0  0
   -1.4930   -1.1580    2.8180 N   0  0  0  0  0
   -0.6000   -0.7880    1.8790 C   0  0  0  0  0
    0.3400   -0.0800    2.1810 O   0  0  0  0  0
   -0.7500   -1.2040    0.6060 N   0  0  0  0  0
    0.2390   -0.9220   -0.3420 C   0  0  0  0  0
    1.5800   -0.9570    0.0190 C   0  0  0  0  0
    2.5540   -0.6790   -0.9190 C   0  0  0  0  0
    2.1960   -0.3660   -2.2180 C   0  0  0  0  0
    3.4230   -0.0170   -3.3960 CL  0  0  0  0  0
    0.8610   -0.3300   -2.5810 C   0  0  0  0  0
    0.4740    0.0100   -3.9970 C   0  0  0  0  0
   -0.9480   -0.0170   -4.1220 O   0  0  0  0  0
   -1.2350    0.2960   -5.4130 C   0  0  0  0  0
   -2.5550    0.3510   -5.8490 C   0  0  0  0  0
   -2.7980    0.6750   -7.1740 C   0  0  0  0  0
   -1.7300    0.9320   -8.0130 C   0  0  0  0  0
   -0.4900    0.8710   -7.5680 N   0  0  0  0  0
   -0.2160    0.5720   -6.3130 C   0  0  0  0  0
   -0.1170   -0.6130   -1.6480 C   0  0  0  0  0
   -2.1550   -1.0210    5.1740 N   0  0  0  0  0
   -1.6410   -0.3970    6.3170 N   0  0  0  0  0
    0.3500    1.6110    8.9900 H   0  0  0  0  0
   -1.2840    1.4370    8.3080 H   0  0  0  0  0
   -0.3110   -0.0080    8.6660 H   0  0  0  0  0
   -0.6500    2.9300    6.4070 H   0  0  0  0  0
    0.9840    3.1040    7.0890 H   0  0  0  0  0
    0.7740    2.5470    5.4120 H   0  0  0  0  0
    1.6880   -0.5460    7.2690 H   0  0  0  0  0
    2.1400    0.5160    5.9150 H   0  0  0  0  0
    2.3500    1.0730    7.5920 H   0  0  0  0  0
    0.4780    0.4700    4.0350 H   0  0  0  0  0
   -2.2440   -1.7240    2.5780 H   0  0  0  0  0
   -1.5430   -1.6980    0.3470 H   0  0  0  0  0
    1.8600   -1.2010    1.0330 H   0  0  0  0  0
    3.5970   -0.7060   -0.6380 H   0  0  0  0  0
    0.8410    1.0070   -4.2440 H   0  0  0  0  0
    0.9140   -0.7170   -4.6790 H   0  0  0  0  0
   -3.3710    0.1450   -5.1720 H   0  0  0  0  0
   -3.8100    0.7260   -7.5470 H   0  0  0  0  0
   -1.9130    1.1850   -9.0470 H   0  0  0  0  0
    0.8110    0.5320   -5.9850 H   0  0  0  0  0
   -1.1580   -0.5850   -1.9310 H   0  0  0  0  0
   -2.9550   -1.5690    5.1340 H   0  0  0  0  0
  1  2  1  0  0  0
  1 29  1  0  0  0
  1 30  1  0  0  0
  1 31  1  0  0  0
  2  3  1  0  0  0
  2  4  1  0  0  0
  2  5  1  0  0  0
  3 32  1  0  0  0
  3 33  1  0  0  0
  3 34  1  0  0  0
  4 35  1  0  0  0
  4 36  1  0  0  0
  4 37  1  0  0  0
  5  6  1  0  0  0
  5 28  2  0  0  0
  6  7  2  0  0  0
  6 38  1  0  0  0
  7  8  1  0  0  0
  7 27  1  0  0  0
  8  9  1  0  0  0
  8 39  1  0  0  0
  9 10  2  0  0  0
  9 11  1  0  0  0
 11 12  1  0  0  0
 11 40  1  0  0  0
 12 13  2  0  0  0
 12 26  1  0  0  0
 13 14  1  0  0  0
 13 41  1  0  0  0
 14 15  2  0  0  0
 14 42  1  0  0  0
 15 16  1  0  0  0
 15 17  1  0  0  0
 17 18  1  0  0  0
 17 26  2  0  0  0
 18 19  1  0  0  0
 18 43  1  0  0  0
 18 44  1  0  0  0
 19 20  1  0  0  0
 20 21  2  0  0  0
 20 25  1  0  0  0
 21 22  1  0  0  0
 21 45  1  0  0  0
 22 23  2  0  0  0
 22 46  1  0  0  0
 23 24  1  0  0  0
 23 47  1  0  0  0
 24 25  2  0  0  0
 25 48  1  0  0  0
 26 49  1  0  0  0
 27 28  1  0  0  0
 27 50  1  0  0  0
M  END
$$$$
