L71
  CCTOOLS-1004241127

 33 34  0  0  1  0  0  0  0  0999 V2000
    4.5690    1.4750    0.0670 C   0  0  0  0  0
    2.4990    0.1740    0.1380 N   0  0  0  0  0
    3.4610   -1.8020   -0.4220 O   0  0  0  0  0
    3.6050    0.6840    0.9530 C   0  0  0  0  0
   -4.9440    1.4870   -0.3170 N   0  0  0  0  0
    1.1210    1.9550    0.4020 O   0  0  0  0  0
    2.5370   -1.0190   -0.4690 C   0  0  0  0  0
    1.2430   -1.2340   -1.2230 C   0  0  0  0  0
    0.4430    0.0540   -0.9440 C   0  0  0  0  0
    1.3660    0.8600   -0.0570 C   0  0  0  0  0
   -0.8390   -0.2640   -0.2180 C   0  0  0  0  0
   -0.7980   -0.8850    1.0160 C   0  0  0  0  0
   -1.9730   -1.1770    1.6830 C   0  0  0  0  0
   -3.1900   -0.8480    1.1150 C   0  0  0  0  0
   -3.2310   -0.2260   -0.1190 C   0  0  0  0  0
   -4.5570    0.1330   -0.7380 C   0  0  0  0  0
   -2.0550    0.0700   -0.7830 C   0  0  0  0  0
    5.3910    1.8550    0.6730 H   0  0  0  0  0
    4.9630    0.8240   -0.7130 H   0  0  0  0  0
    4.0390    2.3110   -0.3910 H   0  0  0  0  0
    4.1340   -0.1520    1.4100 H   0  0  0  0  0
    3.2110    1.3350    1.7330 H   0  0  0  0  0
   -5.8300    1.7510   -0.7190 H   0  0  0  0  0
   -4.9670    1.5600    0.6890 H   0  0  0  0  0
    1.4350   -1.3430   -2.2910 H   0  0  0  0  0
    0.7140   -2.1060   -0.8370 H   0  0  0  0  0
    0.2360    0.5860   -1.8730 H   0  0  0  0  0
    0.1530   -1.1430    1.4600 H   0  0  0  0  0
   -1.9410   -1.6630    2.6470 H   0  0  0  0  0
   -4.1080   -1.0770    1.6350 H   0  0  0  0  0
   -5.3150   -0.5790   -0.4120 H   0  0  0  0  0
   -4.4710    0.1010   -1.8240 H   0  0  0  0  0
   -2.0870    0.5600   -1.7450 H   0  0  0  0  0
  1  4  1  0  0  0
  1 18  1  0  0  0
  1 19  1  0  0  0
  1 20  1  0  0  0
  2  4  1  0  0  0
  2  7  1  0  0  0
  2 10  1  0  0  0
  3  7  2  0  0  0
  4 21  1  0  0  0
  4 22  1  0  0  0
  5 16  1  0  0  0
  5 23  1  0  0  0
  5 24  1  0  0  0
  6 10  2  0  0  0
  7  8  1  0  0  0
  8  9  1  0  0  0
  8 25  1  0  0  0
  8 26  1  0  0  0
  9 10  1  0  0  0
  9 11  1  0  0  0
  9 27  1  0  0  0
 11 12  2  0  0  0
 11 17  1  0  0  0
 12 13  1  0  0  0
 12 28  1  0  0  0
 13 14  2  0  0  0
 13 29  1  0  0  0
 14 15  1  0  0  0
 14 30  1  0  0  0
 15 16  1  0  0  0
 15 17  2  0  0  0
 16 31  1  0  0  0
 16 32  1  0  0  0
 17 33  1  0  0  0
M  END
$$$$
