L7S
  CCTOOLS-1004241127

 32 33  0  0  1  0  0  0  0  0999 V2000
   -4.0210    1.8920   -0.5180 C   0  0  0  0  0
   -2.8630   -0.2540   -0.3220 N   0  0  0  0  0
   -3.7700   -0.8120    1.6800 O   0  0  0  0  0
   -4.0490    0.4040   -0.8750 C   0  0  0  0  0
    5.2900    0.4840    0.0360 N   0  0  0  0  0
   -1.5170    0.0490   -2.1210 O   0  0  0  0  0
   -2.8410   -0.7970    0.9020 C   0  0  0  0  0
    4.3940   -1.4090   -0.7030 O   0  0  0  0  0
   -1.4720   -1.3890    1.1590 C   0  0  0  0  0
   -0.6990   -1.0910   -0.1420 C   0  0  0  0  0
   -1.7140   -0.3660   -0.9990 C   0  0  0  0  0
    0.4910   -0.2090    0.1380 C   0  0  0  0  0
    0.3060    1.0440    0.6930 C   0  0  0  0  0
    1.3930    1.8600    0.9530 C   0  0  0  0  0
    2.6690    1.4270    0.6610 C   0  0  0  0  0
    2.8630    0.1630    0.1010 C   0  0  0  0  0
    1.7630   -0.6570   -0.1540 C   0  0  0  0  0
    4.2280   -0.3080   -0.2160 C   0  0  0  0  0
   -3.1230    2.3490   -0.9360 H   0  0  0  0  0
   -4.9030    2.3810   -0.9300 H   0  0  0  0  0
   -4.0150    2.0050    0.5660 H   0  0  0  0  0
   -4.9460   -0.0530   -0.4580 H   0  0  0  0  0
   -4.0550    0.2910   -1.9590 H   0  0  0  0  0
    6.1850    0.1750   -0.1710 H   0  0  0  0  0
    5.1570    1.3630    0.4250 H   0  0  0  0  0
   -0.9960   -0.9000    2.0090 H   0  0  0  0  0
   -1.5440   -2.4640    1.3240 H   0  0  0  0  0
   -0.3870   -2.0170   -0.6240 H   0  0  0  0  0
   -0.6920    1.3880    0.9240 H   0  0  0  0  0
    1.2420    2.8370    1.3870 H   0  0  0  0  0
    3.5170    2.0640    0.8640 H   0  0  0  0  0
    1.9060   -1.6380   -0.5830 H   0  0  0  0  0
  1  4  1  0  0  0
  1 19  1  0  0  0
  1 20  1  0  0  0
  1 21  1  0  0  0
  2  4  1  0  0  0
  2  7  1  0  0  0
  2 11  1  0  0  0
  3  7  2  0  0  0
  4 22  1  0  0  0
  4 23  1  0  0  0
  5 18  1  0  0  0
  5 24  1  0  0  0
  5 25  1  0  0  0
  6 11  2  0  0  0
  7  9  1  0  0  0
  8 18  2  0  0  0
  9 10  1  0  0  0
  9 26  1  0  0  0
  9 27  1  0  0  0
 10 11  1  0  0  0
 10 12  1  0  0  0
 10 28  1  0  0  0
 12 13  2  0  0  0
 12 17  1  0  0  0
 13 14  1  0  0  0
 13 29  1  0  0  0
 14 15  2  0  0  0
 14 30  1  0  0  0
 15 16  1  0  0  0
 15 31  1  0  0  0
 16 17  2  0  0  0
 16 18  1  0  0  0
 17 32  1  0  0  0
M  END
$$$$
