L9Q
  CCTOOLS-0919241028

131130  0  0  1  0  0  0  0  0999 V2000
    0.8650   -0.2180    4.0970 N   0  0  0  0  0
   -0.2090   -4.2270    2.6330 P   0  0  0  0  0
   -1.3840   -5.1060    0.4000 C   0  0  0  0  0
   -1.5240   -4.7250   -1.0750 C   0  0  0  0  0
   -2.2460   -3.4700   -1.1850 O   0  0  0  0  0
   -0.1340   -4.5700   -1.6960 C   0  0  0  0  0
    0.6370   -3.6140   -0.9220 O   0  0  0  0  0
    0.9900   -2.6420    4.4200 C   0  0  0  0  0
    1.7570   -1.3200    4.4810 C   0  0  0  0  0
    1.8890   -3.3620   -1.3370 C   0  0  0  0  0
    2.3250   -3.9220   -2.3140 O   0  0  0  0  0
    2.7500   -2.3810   -0.5830 C   0  0  0  0  0
    4.1180   -2.2790   -1.2600 C   0  0  0  0  0
    4.9920   -1.2830   -0.4950 C   0  0  0  0  0
    6.3610   -1.1810   -1.1710 C   0  0  0  0  0
    7.2350   -0.1850   -0.4060 C   0  0  0  0  0
    8.6030   -0.0830   -1.0820 C   0  0  0  0  0
    9.4770    0.9130   -0.3180 C   0  0  0  0  0
   10.8460    1.0150   -0.9940 C   0  0  0  0  0
   -1.4580   -4.3090    3.4220 O   0  0  0  0  0
   11.7200    2.0110   -0.2290 C   0  0  0  0  0
   13.0880    2.1130   -0.9050 C   0  0  0  0  0
   13.9620    3.1090   -0.1400 C   0  0  0  0  0
   15.3310    3.2110   -0.8170 C   0  0  0  0  0
   16.2050    4.2070   -0.0520 C   0  0  0  0  0
   17.5730    4.3090   -0.7280 C   0  0  0  0  0
   18.4470    5.3050    0.0370 C   0  0  0  0  0
   19.8160    5.4070   -0.6400 C   0  0  0  0  0
   20.6900    6.4030    0.1250 C   0  0  0  0  0
    0.6870   -5.5360    2.9070 O   0  0  0  0  0
   -3.5820   -3.5430   -1.2880 C   0  0  0  0  0
   -4.1310   -4.6190   -1.2860 O   0  0  0  0  0
   -4.3990   -2.2820   -1.4050 C   0  0  0  0  0
   -5.8820   -2.6420   -1.5080 C   0  0  0  0  0
   -6.7110   -1.3620   -1.6270 C   0  0  0  0  0
   -8.1950   -1.7220   -1.7290 C   0  0  0  0  0
   -9.0240   -0.4420   -1.8490 C   0  0  0  0  0
  -10.5070   -0.8020   -1.9510 C   0  0  0  0  0
  -11.3360    0.4780   -2.0700 C   0  0  0  0  0
  -12.7970    0.1230   -2.1710 C   0  0  0  0  0
   -0.5680   -4.1400    1.0660 O   0  0  0  0  0
  -13.6640    0.6790   -1.3610 C   0  0  0  0  0
  -13.2310    1.7940   -0.4450 C   0  0  0  0  0
  -14.1480    3.0030   -0.6450 C   0  0  0  0  0
  -13.7080    4.1350    0.2850 C   0  0  0  0  0
  -14.6250    5.3440    0.0850 C   0  0  0  0  0
  -14.1860    6.4770    1.0150 C   0  0  0  0  0
  -15.1020    7.6850    0.8150 C   0  0  0  0  0
  -14.6630    8.8180    1.7450 C   0  0  0  0  0
  -15.5800   10.0270    1.5450 C   0  0  0  0  0
    0.6150   -2.9130    3.0680 O   0  0  0  0  0
    0.0410   -0.2000    4.6780 H   0  0  0  0  0
    1.3490    0.6670    4.1290 H   0  0  0  0  0
   -2.3700   -5.1290    0.8640 H   0  0  0  0  0
   -0.9220   -6.0890    0.4790 H   0  0  0  0  0
   -2.0720   -5.5060   -1.6020 H   0  0  0  0  0
    0.3740   -5.5340   -1.6940 H   0  0  0  0  0
   -0.2320   -4.2130   -2.7210 H   0  0  0  0  0
    1.6240   -3.4480    4.7900 H   0  0  0  0  0
    0.0950   -2.5720    5.0380 H   0  0  0  0  0
    2.6030   -1.3590    3.7950 H   0  0  0  0  0
    2.1200   -1.1570    5.4960 H   0  0  0  0  0
    2.2700   -1.4020   -0.5830 H   0  0  0  0  0
    2.8760   -2.7230    0.4440 H   0  0  0  0  0
    4.5970   -3.2580   -1.2590 H   0  0  0  0  0
    3.9910   -1.9370   -2.2870 H   0  0  0  0  0
    4.5130   -0.3040   -0.4950 H   0  0  0  0  0
    5.1190   -1.6250    0.5330 H   0  0  0  0  0
    6.8400   -2.1600   -1.1710 H   0  0  0  0  0
    6.2340   -0.8390   -2.1980 H   0  0  0  0  0
    6.7550    0.7940   -0.4060 H   0  0  0  0  0
    7.3620   -0.5270    0.6210 H   0  0  0  0  0
    9.0830   -1.0620   -1.0820 H   0  0  0  0  0
    8.4760    0.2590   -2.1100 H   0  0  0  0  0
    8.9980    1.8920   -0.3180 H   0  0  0  0  0
    9.6040    0.5710    0.7100 H   0  0  0  0  0
   11.3250    0.0360   -0.9940 H   0  0  0  0  0
   10.7190    1.3570   -2.0210 H   0  0  0  0  0
   11.2400    2.9900   -0.2290 H   0  0  0  0  0
   11.8470    1.6690    0.7980 H   0  0  0  0  0
   13.5680    1.1340   -0.9050 H   0  0  0  0  0
   12.9610    2.4550   -1.9330 H   0  0  0  0  0
   13.4830    4.0880   -0.1410 H   0  0  0  0  0
   14.0890    2.7670    0.8870 H   0  0  0  0  0
   15.8100    2.2320   -0.8170 H   0  0  0  0  0
   15.2040    3.5530   -1.8440 H   0  0  0  0  0
   15.7250    5.1860   -0.0520 H   0  0  0  0  0
   16.3320    3.8650    0.9750 H   0  0  0  0  0
   18.0520    3.3300   -0.7280 H   0  0  0  0  0
   17.4460    4.6510   -1.7550 H   0  0  0  0  0
   17.9680    6.2840    0.0360 H   0  0  0  0  0
   18.5740    4.9630    1.0640 H   0  0  0  0  0
   20.2950    4.4280   -0.6400 H   0  0  0  0  0
   19.6890    5.7490   -1.6670 H   0  0  0  0  0
   20.2100    7.3820    0.1250 H   0  0  0  0  0
   20.8170    6.0610    1.1520 H   0  0  0  0  0
   21.6650    6.4760   -0.3570 H   0  0  0  0  0
    1.5230   -5.5500    2.4210 H   0  0  0  0  0
   -4.2360   -1.6600   -0.5250 H   0  0  0  0  0
   -4.0960   -1.7340   -2.2980 H   0  0  0  0  0
   -6.0450   -3.2640   -2.3880 H   0  0  0  0  0
   -6.1860   -3.1900   -0.6150 H   0  0  0  0  0
   -6.5490   -0.7400   -0.7470 H   0  0  0  0  0
   -6.4080   -0.8140   -2.5190 H   0  0  0  0  0
   -8.3580   -2.3440   -2.6100 H   0  0  0  0  0
   -8.4980   -2.2700   -0.8370 H   0  0  0  0  0
   -8.8610    0.1800   -0.9680 H   0  0  0  0  0
   -8.7200    0.1060   -2.7410 H   0  0  0  0  0
  -10.6700   -1.4240   -2.8320 H   0  0  0  0  0
  -10.8110   -1.3500   -1.0590 H   0  0  0  0  0
  -11.1730    1.1000   -1.1900 H   0  0  0  0  0
  -11.0330    1.0260   -2.9630 H   0  0  0  0  0
  -13.1300   -0.5890   -2.9120 H   0  0  0  0  0
  -14.6880    0.3370   -1.3490 H   0  0  0  0  0
  -13.2930    1.4590    0.5900 H   0  0  0  0  0
  -12.2030    2.0760   -0.6750 H   0  0  0  0  0
  -14.0860    3.3380   -1.6800 H   0  0  0  0  0
  -15.1750    2.7210   -0.4150 H   0  0  0  0  0
  -13.7700    3.8000    1.3210 H   0  0  0  0  0
  -12.6810    4.4170    0.0550 H   0  0  0  0  0
  -14.5630    5.6800   -0.9500 H   0  0  0  0  0
  -15.6530    5.0630    0.3150 H   0  0  0  0  0
  -14.2470    6.1410    2.0500 H   0  0  0  0  0
  -13.1580    6.7580    0.7850 H   0  0  0  0  0
  -15.0410    8.0210   -0.2200 H   0  0  0  0  0
  -16.1300    7.4040    1.0460 H   0  0  0  0  0
  -14.7250    8.4830    2.7810 H   0  0  0  0  0
  -13.6350    9.0990    1.5150 H   0  0  0  0  0
  -15.5180   10.3620    0.5100 H   0  0  0  0  0
  -16.6070    9.7450    1.7760 H   0  0  0  0  0
  -15.2670   10.8340    2.2080 H   0  0  0  0  0
  1 52  1  0  0  0
  1 53  1  0  0  0
  2 30  1  0  0  0
  2 51  1  0  0  0
  3 54  1  0  0  0
  3 55  1  0  0  0
  4  3  1  0  0  0
  4  5  1  0  0  0
  4 56  1  0  0  0
  6  4  1  0  0  0
  6 57  1  0  0  0
  6 58  1  0  0  0
  7  6  1  0  0  0
  8  9  1  0  0  0
  8 59  1  0  0  0
  8 60  1  0  0  0
  9  1  1  0  0  0
  9 61  1  0  0  0
  9 62  1  0  0  0
 10  7  1  0  0  0
 11 10  2  0  0  0
 12 10  1  0  0  0
 12 13  1  0  0  0
 12 63  1  0  0  0
 12 64  1  0  0  0
 13 65  1  0  0  0
 13 66  1  0  0  0
 14 13  1  0  0  0
 14 67  1  0  0  0
 14 68  1  0  0  0
 15 14  1  0  0  0
 15 69  1  0  0  0
 15 70  1  0  0  0
 16 15  1  0  0  0
 16 17  1  0  0  0
 16 71  1  0  0  0
 16 72  1  0  0  0
 17 18  1  0  0  0
 17 73  1  0  0  0
 17 74  1  0  0  0
 18 75  1  0  0  0
 18 76  1  0  0  0
 19 18  1  0  0  0
 19 21  1  0  0  0
 19 77  1  0  0  0
 19 78  1  0  0  0
 20  2  2  0  0  0
 21 79  1  0  0  0
 21 80  1  0  0  0
 22 21  1  0  0  0
 22 23  1  0  0  0
 22 81  1  0  0  0
 22 82  1  0  0  0
 23 83  1  0  0  0
 23 84  1  0  0  0
 24 23  1  0  0  0
 24 25  1  0  0  0
 24 85  1  0  0  0
 24 86  1  0  0  0
 25 87  1  0  0  0
 25 88  1  0  0  0
 26 25  1  0  0  0
 26 27  1  0  0  0
 26 89  1  0  0  0
 26 90  1  0  0  0
 27 91  1  0  0  0
 27 92  1  0  0  0
 28 27  1  0  0  0
 28 93  1  0  0  0
 28 94  1  0  0  0
 29 28  1  0  0  0
 29 95  1  0  0  0
 29 96  1  0  0  0
 29 97  1  0  0  0
 30 98  1  0  0  0
 31  5  1  0  0  0
 31 32  2  0  0  0
 33 31  1  0  0  0
 33 34  1  0  0  0
 33 99  1  0  0  0
 33100  1  0  0  0
 34101  1  0  0  0
 34102  1  0  0  0
 35 34  1  0  0  0
 35 36  1  0  0  0
 35103  1  0  0  0
 35104  1  0  0  0
 36105  1  0  0  0
 36106  1  0  0  0
 37 36  1  0  0  0
 37 38  1  0  0  0
 37107  1  0  0  0
 37108  1  0  0  0
 38109  1  0  0  0
 38110  1  0  0  0
 39 38  1  0  0  0
 39111  1  0  0  0
 39112  1  0  0  0
 40 39  1  0  0  0
 40 42  2  0  0  0
 40113  1  0  0  0
 41  2  1  0  0  0
 41  3  1  0  0  0
 42 43  1  0  0  0
 42114  1  0  0  0
 43 44  1  0  0  0
 43115  1  0  0  0
 43116  1  0  0  0
 44 45  1  0  0  0
 44117  1  0  0  0
 44118  1  0  0  0
 45 46  1  0  0  0
 45119  1  0  0  0
 45120  1  0  0  0
 46 47  1  0  0  0
 46121  1  0  0  0
 46122  1  0  0  0
 47 48  1  0  0  0
 47123  1  0  0  0
 47124  1  0  0  0
 48 49  1  0  0  0
 48125  1  0  0  0
 48126  1  0  0  0
 49 50  1  0  0  0
 49127  1  0  0  0
 49128  1  0  0  0
 50129  1  0  0  0
 50130  1  0  0  0
 50131  1  0  0  0
 51  8  1  0  0  0
M  END
$$$$
