L9R
  CCTOOLS-0919241028

140139  0  0  1  0  0  0  0  0999 V2000
   -0.8290    0.2020    3.9270 N   0  3  0  0  0
    0.2360    4.2250    2.4440 P   0  0  0  0  0
    1.4140    5.1190    0.2180 C   0  0  0  0  0
    1.5540    4.7490   -1.2600 C   0  0  0  0  0
    2.2750    3.4940   -1.3780 O   0  0  0  0  0
    0.1640    4.5990   -1.8820 C   0  0  0  0  0
   -0.6080    3.6390   -1.1160 O   0  0  0  0  0
   -0.9650    2.6290    4.2190 C   0  0  0  0  0
   -1.7330    1.3070    4.2700 C   0  0  0  0  0
    0.3500    0.2440    4.8010 C   0  0  0  0  0
   -1.5280   -1.0770    4.1100 C   0  0  0  0  0
   -0.4050    0.3320    2.5260 C   0  0  0  0  0
   -1.8600    3.3910   -1.5330 C   0  0  0  0  0
   -2.2950    3.9580   -2.5070 O   0  0  0  0  0
   -2.7220    2.4050   -0.7870 C   0  0  0  0  0
   -4.0900    2.3090   -1.4650 C   0  0  0  0  0
   -4.9650    1.3090   -0.7080 C   0  0  0  0  0
   -6.3340    1.2130   -1.3860 C   0  0  0  0  0
   -7.2090    0.2120   -0.6290 C   0  0  0  0  0
   -8.5770    0.1160   -1.3070 C   0  0  0  0  0
   -9.4520   -0.8850   -0.5490 C   0  0  0  0  0
  -10.8210   -0.9810   -1.2270 C   0  0  0  0  0
    1.5400    4.3050    3.2680 O   0  0  0  0  0
  -11.6960   -1.9820   -0.4700 C   0  0  0  0  0
  -13.0640   -2.0780   -1.1480 C   0  0  0  0  0
  -13.9390   -3.0780   -0.3910 C   0  0  0  0  0
  -15.3080   -3.1740   -1.0690 C   0  0  0  0  0
  -16.1830   -4.1750   -0.3110 C   0  0  0  0  0
  -17.5510   -4.2710   -0.9890 C   0  0  0  0  0
  -18.4260   -5.2720   -0.2320 C   0  0  0  0  0
  -19.7950   -5.3680   -0.9100 C   0  0  0  0  0
  -20.6700   -6.3690   -0.1530 C   0  0  0  0  0
   -0.6220    5.4810    2.7150 O   0  5  0  0  0
    3.6120    3.5670   -1.4800 C   0  0  0  0  0
    4.1610    4.6430   -1.4700 O   0  0  0  0  0
    4.4270    2.3060   -1.6060 C   0  0  0  0  0
    5.9110    2.6660   -1.7050 C   0  0  0  0  0
    6.7390    1.3850   -1.8330 C   0  0  0  0  0
    8.2230    1.7450   -1.9320 C   0  0  0  0  0
    9.0510    0.4650   -2.0600 C   0  0  0  0  0
   10.5340    0.8250   -2.1590 C   0  0  0  0  0
   11.3620   -0.4550   -2.2860 C   0  0  0  0  0
   12.8240   -0.1010   -2.3840 C   0  0  0  0  0
    0.5960    4.1500    0.8760 O   0  0  0  0  0
   13.6890   -0.6590   -1.5740 C   0  0  0  0  0
   13.2540   -1.7790   -0.6640 C   0  0  0  0  0
   14.1700   -2.9870   -0.8690 C   0  0  0  0  0
   13.7280   -4.1240    0.0560 C   0  0  0  0  0
   14.6440   -5.3330   -0.1500 C   0  0  0  0  0
   14.2030   -6.4690    0.7750 C   0  0  0  0  0
   15.1180   -7.6780    0.5700 C   0  0  0  0  0
   14.6770   -8.8140    1.4940 C   0  0  0  0  0
   15.5920  -10.0230    1.2890 C   0  0  0  0  0
   -0.5890    2.9100    2.8690 O   0  0  0  0  0
    2.3990    5.1390    0.6830 H   0  0  0  0  0
    0.9520    6.1030    0.3040 H   0  0  0  0  0
    2.1030    5.5340   -1.7810 H   0  0  0  0  0
   -0.3430    5.5640   -1.8740 H   0  0  0  0  0
    0.2620    4.2500   -2.9100 H   0  0  0  0  0
   -1.5990    3.4330    4.5940 H   0  0  0  0  0
   -0.0700    2.5540    4.8370 H   0  0  0  0  0
   -2.5570    1.3380    3.5560 H   0  0  0  0  0
   -2.1280    1.1560    5.2740 H   0  0  0  0  0
    0.0360    0.1470    5.8400 H   0  0  0  0  0
    1.0210   -0.5760    4.5470 H   0  0  0  0  0
    0.8690    1.1930    4.6660 H   0  0  0  0  0
   -2.4040   -1.1090    3.4610 H   0  0  0  0  0
   -0.8580   -1.8980    3.8550 H   0  0  0  0  0
   -1.8430   -1.1740    5.1490 H   0  0  0  0  0
    0.2720    1.1810    2.4290 H   0  0  0  0  0
    0.1060   -0.5780    2.2150 H   0  0  0  0  0
   -1.2800    0.4910    1.8950 H   0  0  0  0  0
   -2.2430    1.4260   -0.7940 H   0  0  0  0  0
   -2.8490    2.7400    0.2420 H   0  0  0  0  0
   -4.5690    3.2890   -1.4580 H   0  0  0  0  0
   -3.9630    1.9740   -2.4950 H   0  0  0  0  0
   -4.4870    0.3290   -0.7150 H   0  0  0  0  0
   -5.0930    1.6430    0.3210 H   0  0  0  0  0
   -6.8120    2.1920   -1.3790 H   0  0  0  0  0
   -6.2060    0.8780   -2.4150 H   0  0  0  0  0
   -6.7300   -0.7670   -0.6360 H   0  0  0  0  0
   -7.3360    0.5470    0.4010 H   0  0  0  0  0
   -9.0560    1.0950   -1.3000 H   0  0  0  0  0
   -8.4500   -0.2190   -2.3360 H   0  0  0  0  0
   -8.9740   -1.8640   -0.5560 H   0  0  0  0  0
   -9.5800   -0.5500    0.4800 H   0  0  0  0  0
  -11.2990   -0.0020   -1.2200 H   0  0  0  0  0
  -10.6930   -1.3160   -2.2570 H   0  0  0  0  0
  -11.2170   -2.9610   -0.4770 H   0  0  0  0  0
  -11.8230   -1.6470    0.5590 H   0  0  0  0  0
  -13.5430   -1.0980   -1.1410 H   0  0  0  0  0
  -12.9370   -2.4120   -2.1780 H   0  0  0  0  0
  -13.4610   -4.0580   -0.3980 H   0  0  0  0  0
  -14.0670   -2.7430    0.6390 H   0  0  0  0  0
  -15.7860   -2.1950   -1.0620 H   0  0  0  0  0
  -15.1800   -3.5090   -2.0980 H   0  0  0  0  0
  -15.7040   -5.1540   -0.3180 H   0  0  0  0  0
  -16.3100   -3.8400    0.7180 H   0  0  0  0  0
  -18.0300   -3.2920   -0.9820 H   0  0  0  0  0
  -17.4240   -4.6060   -2.0190 H   0  0  0  0  0
  -17.9480   -6.2510   -0.2390 H   0  0  0  0  0
  -18.5540   -4.9370    0.7970 H   0  0  0  0  0
  -20.2730   -4.3890   -0.9030 H   0  0  0  0  0
  -19.6670   -5.7030   -1.9390 H   0  0  0  0  0
  -20.7970   -6.0340    0.8770 H   0  0  0  0  0
  -21.6450   -6.4370   -0.6360 H   0  0  0  0  0
  -20.1910   -7.3480   -0.1600 H   0  0  0  0  0
    4.2630    1.6780   -0.7300 H   0  0  0  0  0
    4.1240    1.7650   -2.5020 H   0  0  0  0  0
    6.0750    3.2930   -2.5810 H   0  0  0  0  0
    6.2140    3.2070   -0.8080 H   0  0  0  0  0
    6.5750    0.7580   -0.9570 H   0  0  0  0  0
    6.4360    0.8450   -2.7290 H   0  0  0  0  0
    8.3870    2.3730   -2.8070 H   0  0  0  0  0
    8.5260    2.2860   -1.0350 H   0  0  0  0  0
    8.8870   -0.1620   -1.1840 H   0  0  0  0  0
    8.7470   -0.0750   -2.9560 H   0  0  0  0  0
   10.6980    1.4530   -3.0340 H   0  0  0  0  0
   10.8380    1.3660   -1.2620 H   0  0  0  0  0
   11.1980   -1.0830   -1.4110 H   0  0  0  0  0
   11.0590   -0.9960   -3.1830 H   0  0  0  0  0
   13.1580    0.6140   -3.1210 H   0  0  0  0  0
   14.7130   -0.3180   -1.5590 H   0  0  0  0  0
   13.3160   -1.4480    0.3730 H   0  0  0  0  0
   12.2260   -2.0580   -0.8960 H   0  0  0  0  0
   14.1080   -3.3180   -1.9060 H   0  0  0  0  0
   15.1970   -2.7080   -0.6370 H   0  0  0  0  0
   13.7900   -3.7930    1.0920 H   0  0  0  0  0
   12.7010   -4.4030   -0.1760 H   0  0  0  0  0
   14.5820   -5.6630   -1.1870 H   0  0  0  0  0
   15.6720   -5.0540    0.0820 H   0  0  0  0  0
   14.2640   -6.1390    1.8120 H   0  0  0  0  0
   13.1750   -6.7480    0.5430 H   0  0  0  0  0
   15.0560   -8.0080   -0.4670 H   0  0  0  0  0
   16.1460   -7.3990    0.8020 H   0  0  0  0  0
   14.7380   -8.4840    2.5310 H   0  0  0  0  0
   13.6490   -9.0930    1.2620 H   0  0  0  0  0
   16.6200   -9.7440    1.5210 H   0  0  0  0  0
   15.2780  -10.8330    1.9470 H   0  0  0  0  0
   15.5300  -10.3540    0.2520 H   0  0  0  0  0
  1  9  1  0  0  0
  1 10  1  0  0  0
  1 11  1  0  0  0
  1 12  1  0  0  0
  2 23  2  0  0  0
  2 33  1  0  0  0
  2 44  1  0  0  0
  2 54  1  0  0  0
  3  4  1  0  0  0
  3 44  1  0  0  0
  3 55  1  0  0  0
  3 56  1  0  0  0
  4  5  1  0  0  0
  4  6  1  0  0  0
  4 57  1  0  0  0
  5 34  1  0  0  0
  6  7  1  0  0  0
  6 58  1  0  0  0
  6 59  1  0  0  0
  7 13  1  0  0  0
  8  9  1  0  0  0
  8 54  1  0  0  0
  8 60  1  0  0  0
  8 61  1  0  0  0
  9 62  1  0  0  0
  9 63  1  0  0  0
 10 64  1  0  0  0
 10 65  1  0  0  0
 10 66  1  0  0  0
 11 67  1  0  0  0
 11 68  1  0  0  0
 11 69  1  0  0  0
 12 70  1  0  0  0
 12 71  1  0  0  0
 12 72  1  0  0  0
 13 14  2  0  0  0
 13 15  1  0  0  0
 15 16  1  0  0  0
 15 73  1  0  0  0
 15 74  1  0  0  0
 16 17  1  0  0  0
 16 75  1  0  0  0
 16 76  1  0  0  0
 17 18  1  0  0  0
 17 77  1  0  0  0
 17 78  1  0  0  0
 18 19  1  0  0  0
 18 79  1  0  0  0
 18 80  1  0  0  0
 19 20  1  0  0  0
 19 81  1  0  0  0
 19 82  1  0  0  0
 20 21  1  0  0  0
 20 83  1  0  0  0
 20 84  1  0  0  0
 21 22  1  0  0  0
 21 85  1  0  0  0
 21 86  1  0  0  0
 22 24  1  0  0  0
 22 87  1  0  0  0
 22 88  1  0  0  0
 24 25  1  0  0  0
 24 89  1  0  0  0
 24 90  1  0  0  0
 25 26  1  0  0  0
 25 91  1  0  0  0
 25 92  1  0  0  0
 26 27  1  0  0  0
 26 93  1  0  0  0
 26 94  1  0  0  0
 27 28  1  0  0  0
 27 95  1  0  0  0
 27 96  1  0  0  0
 28 29  1  0  0  0
 28 97  1  0  0  0
 28 98  1  0  0  0
 29 30  1  0  0  0
 29 99  1  0  0  0
 29100  1  0  0  0
 30 31  1  0  0  0
 30101  1  0  0  0
 30102  1  0  0  0
 31 32  1  0  0  0
 31103  1  0  0  0
 31104  1  0  0  0
 32105  1  0  0  0
 32106  1  0  0  0
 32107  1  0  0  0
 34 35  2  0  0  0
 34 36  1  0  0  0
 36 37  1  0  0  0
 36108  1  0  0  0
 36109  1  0  0  0
 37 38  1  0  0  0
 37110  1  0  0  0
 37111  1  0  0  0
 38 39  1  0  0  0
 38112  1  0  0  0
 38113  1  0  0  0
 39 40  1  0  0  0
 39114  1  0  0  0
 39115  1  0  0  0
 40 41  1  0  0  0
 40116  1  0  0  0
 40117  1  0  0  0
 41 42  1  0  0  0
 41118  1  0  0  0
 41119  1  0  0  0
 42 43  1  0  0  0
 42120  1  0  0  0
 42121  1  0  0  0
 43 45  2  0  0  0
 43122  1  0  0  0
 45 46  1  0  0  0
 45123  1  0  0  0
 46 47  1  0  0  0
 46124  1  0  0  0
 46125  1  0  0  0
 47 48  1  0  0  0
 47126  1  0  0  0
 47127  1  0  0  0
 48 49  1  0  0  0
 48128  1  0  0  0
 48129  1  0  0  0
 49 50  1  0  0  0
 49130  1  0  0  0
 49131  1  0  0  0
 50 51  1  0  0  0
 50132  1  0  0  0
 50133  1  0  0  0
 51 52  1  0  0  0
 51134  1  0  0  0
 51135  1  0  0  0
 52 53  1  0  0  0
 52136  1  0  0  0
 52137  1  0  0  0
 53138  1  0  0  0
 53139  1  0  0  0
 53140  1  0  0  0
M  CHG  1   1   1
M  CHG  1  33  -1
M  END
$$$$
