LAE
  CCTOOLS-0919241029

 36 36  0  0  1  0  0  0  0  0999 V2000
    0.2820    0.4990   -3.3310 C   0  0  0  0  0
   -0.9130   -0.2350   -3.9020 C   0  0  0  0  0
   -0.8140   -0.2110   -5.2460 O   0  0  0  0  0
    0.5990   -0.2540   -5.6070 C   0  0  0  0  0
    1.3260    0.4940   -4.4700 C   0  0  0  0  0
   -1.7980   -0.7550   -3.2650 O   0  0  0  0  0
    0.8030   -0.2060   -2.1580 N   0  0  0  0  0
    0.3780    0.1310   -0.9240 C   0  0  0  0  0
    0.9130   -0.5940    0.2820 C   0  0  0  0  0
    0.2830   -0.0290    1.5280 C   0  0  0  0  0
    0.6520   -0.5860    2.8790 C   0  0  0  0  0
   -0.1230    0.1570    3.9680 C   0  0  0  0  0
    0.2510   -0.4080    5.3390 C   0  0  0  0  0
   -0.5240    0.3340    6.4270 C   0  0  0  0  0
   -0.1490   -0.2310    7.7980 C   0  0  0  0  0
   -0.4350    1.0200   -0.7860 O   0  0  0  0  0
   -0.5180    0.8690    1.4450 O   0  0  0  0  0
    0.0110    1.5210   -3.0690 H   0  0  0  0  0
    0.7620    0.2500   -6.5580 H   0  0  0  0  0
    0.9440   -1.2870   -5.6610 H   0  0  0  0  0
    1.5700    1.5120   -4.7730 H   0  0  0  0  0
    2.2250   -0.0430   -4.1670 H   0  0  0  0  0
    1.4540   -0.9170   -2.2680 H   0  0  0  0  0
    1.9950   -0.4660    0.3320 H   0  0  0  0  0
    0.6760   -1.6550    0.2030 H   0  0  0  0  0
    1.7220   -0.4590    3.0440 H   0  0  0  0  0
    0.4030   -1.6470    2.9150 H   0  0  0  0  0
   -1.1930    0.0290    3.8020 H   0  0  0  0  0
    0.1250    1.2170    3.9320 H   0  0  0  0  0
    1.3210   -0.2810    5.5040 H   0  0  0  0  0
    0.0020   -1.4690    5.3750 H   0  0  0  0  0
   -1.5940    0.2070    6.2620 H   0  0  0  0  0
   -0.2750    1.3950    6.3910 H   0  0  0  0  0
   -0.7020    0.2980    8.5740 H   0  0  0  0  0
   -0.3980   -1.2910    7.8340 H   0  0  0  0  0
    0.9200   -0.1030    7.9630 H   0  0  0  0  0
  1  2  1  0  0  0
  1  5  1  0  0  0
  1  7  1  0  0  0
  1 18  1  0  0  0
  2  3  1  0  0  0
  2  6  2  0  0  0
  3  4  1  0  0  0
  4  5  1  0  0  0
  4 19  1  0  0  0
  4 20  1  0  0  0
  5 21  1  0  0  0
  5 22  1  0  0  0
  7  8  1  0  0  0
  7 23  1  0  0  0
  8  9  1  0  0  0
  8 16  2  0  0  0
  9 10  1  0  0  0
  9 24  1  0  0  0
  9 25  1  0  0  0
 10 11  1  0  0  0
 10 17  2  0  0  0
 11 12  1  0  0  0
 11 26  1  0  0  0
 11 27  1  0  0  0
 12 13  1  0  0  0
 12 28  1  0  0  0
 12 29  1  0  0  0
 13 14  1  0  0  0
 13 30  1  0  0  0
 13 31  1  0  0  0
 14 15  1  0  0  0
 14 32  1  0  0  0
 14 33  1  0  0  0
 15 34  1  0  0  0
 15 35  1  0  0  0
 15 36  1  0  0  0
M  END
$$$$
