LDA
  CCTOOLS-0919241029

 47 46  0  0  0  0  0  0  0  0999 V2000
   -5.9130   -0.0900   -0.0030 N   0  3  0  0  0
   -5.9940   -0.8590    1.2390 O   0  5  0  0  0
   -7.0870    0.7860   -0.1140 C   0  0  0  0  0
   -5.8780   -1.0100   -1.1470 C   0  0  0  0  0
   -4.6920    0.7270    0.0060 C   0  0  0  0  0
   -3.4660   -0.1880   -0.0030 C   0  0  0  0  0
   -2.1940    0.6630    0.0060 C   0  0  0  0  0
   -0.9680   -0.2520   -0.0040 C   0  0  0  0  0
    0.3040    0.5980    0.0060 C   0  0  0  0  0
    1.5300   -0.3170   -0.0040 C   0  0  0  0  0
    2.8010    0.5340    0.0050 C   0  0  0  0  0
    4.0270   -0.3810   -0.0040 C   0  0  0  0  0
    5.2990    0.4700    0.0050 C   0  0  0  0  0
    6.5250   -0.4460   -0.0050 C   0  0  0  0  0
    7.7970    0.4050    0.0050 C   0  0  0  0  0
    9.0230   -0.5100   -0.0050 C   0  0  0  0  0
   -7.0260    1.3590   -1.0390 H   0  0  0  0  0
   -7.9930    0.1800   -0.1210 H   0  0  0  0  0
   -7.1130    1.4690    0.7350 H   0  0  0  0  0
   -5.0060   -1.6590   -1.0650 H   0  0  0  0  0
   -6.7830   -1.6160   -1.1540 H   0  0  0  0  0
   -5.8170   -0.4370   -2.0730 H   0  0  0  0  0
   -4.6760    1.3470    0.9030 H   0  0  0  0  0
   -4.6750    1.3660   -0.8770 H   0  0  0  0  0
   -3.4820   -0.8070   -0.9000 H   0  0  0  0  0
   -3.4820   -0.8270    0.8800 H   0  0  0  0  0
   -2.1780    1.2820    0.9030 H   0  0  0  0  0
   -2.1780    1.3020   -0.8770 H   0  0  0  0  0
   -0.9840   -0.8720   -0.9010 H   0  0  0  0  0
   -0.9840   -0.8910    0.8790 H   0  0  0  0  0
    0.3200    1.2180    0.9030 H   0  0  0  0  0
    0.3200    1.2370   -0.8770 H   0  0  0  0  0
    1.5140   -0.9360   -0.9010 H   0  0  0  0  0
    1.5130   -0.9550    0.8790 H   0  0  0  0  0
    2.8170    1.1530    0.9020 H   0  0  0  0  0
    2.8180    1.1730   -0.8780 H   0  0  0  0  0
    4.0110   -1.0010   -0.9010 H   0  0  0  0  0
    4.0110   -1.0200    0.8790 H   0  0  0  0  0
    5.3150    1.0890    0.9020 H   0  0  0  0  0
    5.3150    1.1080   -0.8780 H   0  0  0  0  0
    6.5090   -1.0650   -0.9010 H   0  0  0  0  0
    6.5090   -1.0840    0.8790 H   0  0  0  0  0
    7.8130    1.0250    0.9020 H   0  0  0  0  0
    7.8130    1.0440   -0.8780 H   0  0  0  0  0
    9.9290    0.0960    0.0020 H   0  0  0  0  0
    9.0060   -1.1490    0.8780 H   0  0  0  0  0
    9.0070   -1.1290   -0.9020 H   0  0  0  0  0
  1  2  1  0  0  0
  1  3  1  0  0  0
  1  4  1  0  0  0
  1  5  1  0  0  0
  3 17  1  0  0  0
  3 18  1  0  0  0
  3 19  1  0  0  0
  4 20  1  0  0  0
  4 21  1  0  0  0
  4 22  1  0  0  0
  5  6  1  0  0  0
  5 23  1  0  0  0
  5 24  1  0  0  0
  6  7  1  0  0  0
  6 25  1  0  0  0
  6 26  1  0  0  0
  7  8  1  0  0  0
  7 27  1  0  0  0
  7 28  1  0  0  0
  8  9  1  0  0  0
  8 29  1  0  0  0
  8 30  1  0  0  0
  9 10  1  0  0  0
  9 31  1  0  0  0
  9 32  1  0  0  0
 10 11  1  0  0  0
 10 33  1  0  0  0
 10 34  1  0  0  0
 11 12  1  0  0  0
 11 35  1  0  0  0
 11 36  1  0  0  0
 12 13  1  0  0  0
 12 37  1  0  0  0
 12 38  1  0  0  0
 13 14  1  0  0  0
 13 39  1  0  0  0
 13 40  1  0  0  0
 14 15  1  0  0  0
 14 41  1  0  0  0
 14 42  1  0  0  0
 15 16  1  0  0  0
 15 43  1  0  0  0
 15 44  1  0  0  0
 16 45  1  0  0  0
 16 46  1  0  0  0
 16 47  1  0  0  0
M  CHG  1   1   1
M  CHG  1   2  -1
M  END
$$$$
