LDP
  CCTOOLS-0919241029

 22 22  0  0  0  0  0  0  0  0999 V2000
    0.0380   -0.7070    2.1700 C   0  0  0  0  0
    0.1890   -0.4110    0.7010 C   0  0  0  0  0
    0.4720    0.1330   -1.9990 C   0  0  0  0  0
   -0.9320   -0.2990   -0.0980 C   0  0  0  0  0
    1.4490   -0.2560    0.1540 C   0  0  0  0  0
    1.5930    0.0150   -1.1930 C   0  0  0  0  0
   -0.7960   -0.0220   -1.4490 C   0  0  0  0  0
   -1.8990    0.0920   -2.2360 O   0  0  0  0  0
    0.6110    0.3990   -3.3260 O   0  0  0  0  0
   -0.0630    0.6060    2.9480 C   0  0  0  0  0
   -0.2100    0.3180    4.3800 N   0  0  0  0  0
    0.9050   -1.2680    2.5190 H   0  0  0  0  0
   -0.8640   -1.2960    2.3320 H   0  0  0  0  0
   -1.9160   -0.4210    0.3310 H   0  0  0  0  0
    2.3240   -0.3480    0.7810 H   0  0  0  0  0
    2.5780    0.1350   -1.6180 H   0  0  0  0  0
   -2.0920   -0.7910   -2.5770 H   0  0  0  0  0
    0.6730   -0.4520   -3.7770 H   0  0  0  0  0
   -0.9300    1.1680    2.5990 H   0  0  0  0  0
    0.8390    1.1950    2.7860 H   0  0  0  0  0
   -0.2740    1.2080    4.8510 H   0  0  0  0  0
   -1.1050   -0.1340    4.4950 H   0  0  0  0  0
  1  2  1  0  0  0
  1 10  1  0  0  0
  1 12  1  0  0  0
  1 13  1  0  0  0
  2  4  2  0  0  0
  2  5  1  0  0  0
  3  6  1  0  0  0
  3  7  2  0  0  0
  3  9  1  0  0  0
  4  7  1  0  0  0
  4 14  1  0  0  0
  5  6  2  0  0  0
  5 15  1  0  0  0
  6 16  1  0  0  0
  7  8  1  0  0  0
  8 17  1  0  0  0
  9 18  1  0  0  0
 10 11  1  0  0  0
 10 19  1  0  0  0
 10 20  1  0  0  0
 11 21  1  0  0  0
 11 22  1  0  0  0
M  END
$$$$
