LEA
  CCTOOLS-1004241127

 17 16  0  0  0  0  0  0  0  0999 V2000
   -1.5760   -0.0480   -0.0010 C   0  0  0  0  0
   -2.7600    0.5850   -0.0000 O   0  0  0  0  0
   -0.2960    0.7480    0.0010 C   0  0  0  0  0
    0.8990   -0.2070   -0.0010 C   0  0  0  0  0
    2.1980    0.6010    0.0010 C   0  0  0  0  0
    3.3930   -0.3550   -0.0010 C   0  0  0  0  0
   -1.5360   -1.2550    0.0010 O   0  0  0  0  0
   -3.5530    0.0320   -0.0020 H   0  0  0  0  0
   -0.2590    1.3780   -0.8880 H   0  0  0  0  0
   -0.2590    1.3750    0.8920 H   0  0  0  0  0
    0.8620   -0.8370    0.8880 H   0  0  0  0  0
    0.8620   -0.8340   -0.8920 H   0  0  0  0  0
    2.2360    1.2310   -0.8880 H   0  0  0  0  0
    2.2350    1.2270    0.8920 H   0  0  0  0  0
    3.3560   -0.9850    0.8880 H   0  0  0  0  0
    3.3560   -0.9810   -0.8920 H   0  0  0  0  0
    4.3190    0.2210    0.0010 H   0  0  0  0  0
  1  2  1  0  0  0
  1  3  1  0  0  0
  1  7  2  0  0  0
  2  8  1  0  0  0
  3  4  1  0  0  0
  3  9  1  0  0  0
  3 10  1  0  0  0
  4  5  1  0  0  0
  4 11  1  0  0  0
  4 12  1  0  0  0
  5  6  1  0  0  0
  5 13  1  0  0  0
  5 14  1  0  0  0
  6 15  1  0  0  0
  6 16  1  0  0  0
  6 17  1  0  0  0
M  END
$$$$
