LFN
  CCTOOLS-0919241029

 31 33  0  0  0  0  0  0  0  0999 V2000
   -2.4410    1.2860    0.0000 N   0  0  0  0  0
   -3.5860    0.6080    0.0000 C   0  0  0  0  0
   -1.2720    0.6690    0.0050 C   0  0  0  0  0
   -4.6260    1.2420    0.0000 O   0  0  0  0  0
   -3.6660   -0.7310   -0.0010 N   0  0  0  0  0
   -2.5530   -1.5010   -0.0010 C   0  0  0  0  0
   -2.6230   -2.7150   -0.0010 O   0  0  0  0  0
   -1.2490   -0.8030    0.0000 C   0  0  0  0  0
   -0.1110   -1.4500    0.0000 N   0  0  0  0  0
    1.0530   -0.7860    0.0000 C   0  0  0  0  0
    2.2670   -1.5010    0.0000 C   0  0  0  0  0
    1.0840    0.6270    0.0000 C   0  0  0  0  0
    3.4510   -0.8290    0.0000 C   0  0  0  0  0
    4.7460   -1.6000    0.0000 C   0  0  0  0  0
    3.4800    0.5620    0.0000 C   0  0  0  0  0
    4.8040    1.2820    0.0000 C   0  0  0  0  0
    2.3090    1.2880    0.0000 C   0  0  0  0  0
   -0.0910    1.3490   -0.0010 N   0  0  0  0  0
   -0.0690    2.8140   -0.0010 C   0  0  0  0  0
   -4.5380   -1.1550   -0.0010 H   0  0  0  0  0
    2.2590   -2.5810    0.0010 H   0  0  0  0  0
    5.0580   -1.7860    1.0280 H   0  0  0  0  0
    4.6030   -2.5510   -0.5130 H   0  0  0  0  0
    5.5140   -1.0220   -0.5130 H   0  0  0  0  0
    5.1230    1.4550    1.0270 H   0  0  0  0  0
    5.5480    0.6740   -0.5140 H   0  0  0  0  0
    4.6980    2.2380   -0.5140 H   0  0  0  0  0
    2.3420    2.3670   -0.0010 H   0  0  0  0  0
   -0.0640    3.1770   -1.0290 H   0  0  0  0  0
   -0.9540    3.1900    0.5120 H   0  0  0  0  0
    0.8260    3.1640    0.5130 H   0  0  0  0  0
  1  2  1  0  0  0
  1  3  2  0  0  0
  2  4  2  0  0  0
  2  5  1  0  0  0
  3  8  1  0  0  0
  3 18  1  0  0  0
  5  6  1  0  0  0
  5 20  1  0  0  0
  6  7  2  0  0  0
  6  8  1  0  0  0
  8  9  2  0  0  0
  9 10  1  0  0  0
 10 11  2  0  0  0
 10 12  1  0  0  0
 11 13  1  0  0  0
 11 21  1  0  0  0
 12 17  2  0  0  0
 12 18  1  0  0  0
 13 14  1  0  0  0
 13 15  2  0  0  0
 14 22  1  0  0  0
 14 23  1  0  0  0
 14 24  1  0  0  0
 15 16  1  0  0  0
 15 17  1  0  0  0
 16 25  1  0  0  0
 16 26  1  0  0  0
 16 27  1  0  0  0
 17 28  1  0  0  0
 18 19  1  0  0  0
 19 29  1  0  0  0
 19 30  1  0  0  0
 19 31  1  0  0  0
M  END
$$$$
