LG1
  CCTOOLS-0919241029

 43 47  0  0  0  0  0  0  0  0999 V2000
    4.7200   -0.6850   -0.1820 C   0  0  0  0  0
    4.0920    0.5270    0.0310 C   0  0  0  0  0
    2.7050    0.6140    0.0580 C   0  0  0  0  0
    2.0850    1.8430    0.2380 N   0  0  0  0  0
    0.7170    1.9990    0.0840 C   0  0  0  0  0
    0.1290    3.2480   -0.0310 C   0  0  0  0  0
   -1.2480    3.3740   -0.1560 C   0  0  0  0  0
   -2.0700    2.2670   -0.1630 C   0  0  0  0  0
   -1.5060    0.9990   -0.0540 C   0  0  0  0  0
   -2.3100   -0.2280   -0.0230 C   0  0  0  0  0
   -3.6930   -0.1940   -0.1880 C   0  0  0  0  0
   -4.4130   -1.3690   -0.1590 C   0  0  0  0  0
   -5.7550   -1.3400   -0.3170 F   0  0  0  0  0
   -3.7620   -2.5820    0.0310 C   0  0  0  0  0
   -2.4080   -2.6360    0.2010 C   0  0  0  0  0
   -1.6450   -1.4610    0.1940 C   0  0  0  0  0
   -0.3150   -1.4800    0.4040 N   0  3  0  0  0
    0.4810   -0.4850    0.0980 C   0  0  0  0  0
    1.9410   -0.5650   -0.0810 C   0  0  0  0  0
    2.5910   -1.7650   -0.3530 C   0  0  0  0  0
    3.9700   -1.8300   -0.3910 C   0  0  0  0  0
    4.5840   -3.0110   -0.6210 F   0  0  0  0  0
   -0.1080    0.8640    0.0400 C   0  0  0  0  0
    0.2240   -2.6250    1.1490 C   0  0  0  0  0
   -1.8530    4.7490   -0.2820 C   0  0  0  0  0
    2.8960    3.0170    0.5660 C   0  0  0  0  0
    5.7980   -0.7360   -0.1820 H   0  0  0  0  0
    4.7240    1.3930    0.1670 H   0  0  0  0  0
    0.7210    4.1510   -0.0400 H   0  0  0  0  0
   -3.1390    2.3850   -0.2520 H   0  0  0  0  0
   -4.2030    0.7470   -0.3370 H   0  0  0  0  0
   -4.3330   -3.4990    0.0410 H   0  0  0  0  0
   -1.9530   -3.6080    0.3210 H   0  0  0  0  0
    2.0320   -2.6590   -0.5920 H   0  0  0  0  0
    0.4880   -3.4210    0.4520 H   0  0  0  0  0
    1.1110   -2.3150    1.7000 H   0  0  0  0  0
   -0.5290   -2.9900    1.8480 H   0  0  0  0  0
   -1.9120    5.0240   -1.3350 H   0  0  0  0  0
   -2.8540    4.7460    0.1490 H   0  0  0  0  0
   -1.2310    5.4700    0.2480 H   0  0  0  0  0
    3.2820    3.4600   -0.3520 H   0  0  0  0  0
    2.2810    3.7480    1.0920 H   0  0  0  0  0
    3.7280    2.7180    1.2030 H   0  0  0  0  0
  1  2  2  0  0  0
  1 21  1  0  0  0
  1 27  1  0  0  0
  2  3  1  0  0  0
  2 28  1  0  0  0
  3  4  1  0  0  0
  3 19  2  0  0  0
  4  5  1  0  0  0
  4 26  1  0  0  0
  5  6  2  0  0  0
  5 23  1  0  0  0
  6  7  1  0  0  0
  6 29  1  0  0  0
  7  8  2  0  0  0
  7 25  1  0  0  0
  8  9  1  0  0  0
  8 30  1  0  0  0
  9 10  1  0  0  0
  9 23  2  0  0  0
 10 11  2  0  0  0
 10 16  1  0  0  0
 11 12  1  0  0  0
 11 31  1  0  0  0
 12 13  1  0  0  0
 12 14  2  0  0  0
 14 15  1  0  0  0
 14 32  1  0  0  0
 15 16  2  0  0  0
 15 33  1  0  0  0
 16 17  1  0  0  0
 17 18  2  0  0  0
 17 24  1  0  0  0
 18 19  1  0  0  0
 18 23  1  0  0  0
 19 20  1  0  0  0
 20 21  2  0  0  0
 20 34  1  0  0  0
 21 22  1  0  0  0
 24 35  1  0  0  0
 24 36  1  0  0  0
 24 37  1  0  0  0
 25 38  1  0  0  0
 25 39  1  0  0  0
 25 40  1  0  0  0
 26 41  1  0  0  0
 26 42  1  0  0  0
 26 43  1  0  0  0
M  CHG  1  17   1
M  END
$$$$
