LH3
  CCTOOLS-0919241030

 77 81  0  0  1  0  0  0  0  0999 V2000
    6.7170   -4.8750    0.7710 O   0  0  0  0  0
    6.9980   -3.7070    0.5850 C   0  0  0  0  0
    8.0110   -3.3150   -0.2000 N   0  0  0  0  0
    8.0730   -1.8450   -0.2060 C   0  0  0  0  0
    6.3200   -2.6940    1.1420 N   0  0  0  0  0
    6.9210   -1.4210    0.7140 C   0  0  0  0  0
    5.8570   -0.5860   -0.0250 C   0  0  0  0  0
    6.0690   -1.1160   -1.7730 S   0  0  0  0  0
    7.8910   -1.3340   -1.6480 C   0  0  0  0  0
    4.4530   -0.9280    0.4790 C   0  0  0  0  0
    3.4340    0.0020   -0.1820 C   0  0  0  0  0
    2.0300   -0.3400    0.3220 C   0  0  0  0  0
    1.0110    0.5900   -0.3380 C   0  0  0  0  0
   -0.3720    0.2530    0.1580 C   0  0  0  0  0
   -0.5260   -0.6430    0.9610 O   0  0  0  0  0
   -1.4370    0.9470   -0.2900 N   0  0  0  0  0
   -2.7220    0.6340    0.1710 N   0  0  0  0  0
   -3.8050    1.4190   -0.2040 C   0  0  0  0  0
   -5.0630    0.8370   -0.4020 C   0  0  0  0  0
   -5.2450   -0.6210   -0.2130 C   0  0  0  0  0
   -6.2880   -1.0960    0.5840 C   0  0  0  0  0
   -6.4580   -2.4450    0.7600 C   0  0  0  0  0
   -5.5850   -3.3450    0.1410 C   0  0  0  0  0
   -5.7670   -4.7970    0.3290 C   0  0  0  0  0
   -4.9260   -5.6640   -0.2670 O   0  0  0  0  0
   -5.1640   -7.0780   -0.0380 C   0  0  0  0  0
   -6.6750   -5.2110    1.0230 O   0  0  0  0  0
   -4.5410   -2.8680   -0.6570 C   0  0  0  0  0
   -4.3760   -1.5190   -0.8350 C   0  0  0  0  0
   -6.1430    1.6340   -0.7770 C   0  0  0  0  0
   -5.9760    2.9930   -0.9550 C   0  0  0  0  0
   -4.7390    3.5770   -0.7620 C   0  0  0  0  0
   -3.6480    2.7990   -0.3810 C   0  0  0  0  0
   -2.3240    3.4290   -0.1690 C   0  0  0  0  0
   -1.7600    4.2210   -1.1710 C   0  0  0  0  0
   -0.5350    4.8050   -0.9760 C   0  0  0  0  0
    0.1500    4.6070    0.2270 C   0  0  0  0  0
   -0.4160    3.8140    1.2300 C   0  0  0  0  0
   -1.6440    3.2350    1.0340 C   0  0  0  0  0
    1.4690    5.2340    0.4370 C   0  0  0  0  0
    1.9600    5.9220   -0.4350 O   0  0  0  0  0
    2.1280    5.0420    1.5970 O   0  0  0  0  0
    3.4210    5.6900    1.7340 C   0  0  0  0  0
    8.6070   -3.9050   -0.6870 H   0  0  0  0  0
    5.5570   -2.7850    1.7340 H   0  0  0  0  0
    9.0260   -1.5060    0.2020 H   0  0  0  0  0
    7.3070   -0.8730    1.5740 H   0  0  0  0  0
    8.4050   -0.3830   -1.7900 H   0  0  0  0  0
    8.2420   -2.0750   -2.3680 H   0  0  0  0  0
    6.0590    0.4800    0.0830 H   0  0  0  0  0
    4.2190   -1.9620    0.2270 H   0  0  0  0  0
    4.4150   -0.8000    1.5610 H   0  0  0  0  0
    3.6680    1.0360    0.0700 H   0  0  0  0  0
    3.4730   -0.1260   -1.2630 H   0  0  0  0  0
    1.7960   -1.3740    0.0700 H   0  0  0  0  0
    1.9910   -0.2120    1.4040 H   0  0  0  0  0
    1.2450    1.6240   -0.0860 H   0  0  0  0  0
    1.0490    0.4620   -1.4200 H   0  0  0  0  0
   -1.3130    1.6630   -0.9330 H   0  0  0  0  0
   -2.8550   -0.1310    0.7520 H   0  0  0  0  0
   -7.1140    1.1860   -0.9300 H   0  0  0  0  0
   -6.9620   -0.4000    1.0620 H   0  0  0  0  0
   -3.5720   -1.1500   -1.4550 H   0  0  0  0  0
   -7.2650   -2.8120    1.3770 H   0  0  0  0  0
   -3.8660   -3.5630   -1.1350 H   0  0  0  0  0
   -5.0950   -7.2890    1.0290 H   0  0  0  0  0
   -6.1590   -7.3410   -0.3960 H   0  0  0  0  0
   -4.4180   -7.6640   -0.5740 H   0  0  0  0  0
   -6.8180    3.6040   -1.2460 H   0  0  0  0  0
   -4.6190    4.6410   -0.9030 H   0  0  0  0  0
   -2.2890    4.3740   -2.1000 H   0  0  0  0  0
   -2.0830    2.6260    1.8110 H   0  0  0  0  0
   -0.0990    5.4170   -1.7520 H   0  0  0  0  0
    0.1120    3.6600    2.1590 H   0  0  0  0  0
    3.2980    6.7690    1.6410 H   0  0  0  0  0
    3.8420    5.4550    2.7110 H   0  0  0  0  0
    4.0910    5.3320    0.9530 H   0  0  0  0  0
  1  2  2  0  0  0
  2  3  1  0  0  0
  2  5  1  0  0  0
  3  4  1  0  0  0
  3 44  1  0  0  0
  4  6  1  0  0  0
  4  9  1  0  0  0
  4 46  1  0  0  0
  5  6  1  0  0  0
  5 45  1  0  0  0
  6  7  1  0  0  0
  6 47  1  0  0  0
  7  8  1  0  0  0
  7 10  1  0  0  0
  7 50  1  0  0  0
  8  9  1  0  0  0
  9 48  1  0  0  0
  9 49  1  0  0  0
 10 11  1  0  0  0
 10 51  1  0  0  0
 10 52  1  0  0  0
 11 12  1  0  0  0
 11 53  1  0  0  0
 11 54  1  0  0  0
 12 13  1  0  0  0
 12 55  1  0  0  0
 12 56  1  0  0  0
 13 14  1  0  0  0
 13 57  1  0  0  0
 13 58  1  0  0  0
 14 15  2  0  0  0
 14 16  1  0  0  0
 16 17  1  0  0  0
 16 59  1  0  0  0
 17 18  1  0  0  0
 17 60  1  0  0  0
 18 19  1  0  0  0
 18 33  2  0  0  0
 19 20  1  0  0  0
 19 30  2  0  0  0
 20 21  1  0  0  0
 20 29  2  0  0  0
 21 22  2  0  0  0
 21 62  1  0  0  0
 22 23  1  0  0  0
 22 64  1  0  0  0
 23 24  1  0  0  0
 23 28  2  0  0  0
 24 25  1  0  0  0
 24 27  2  0  0  0
 25 26  1  0  0  0
 26 66  1  0  0  0
 26 67  1  0  0  0
 26 68  1  0  0  0
 28 29  1  0  0  0
 28 65  1  0  0  0
 29 63  1  0  0  0
 30 31  1  0  0  0
 30 61  1  0  0  0
 31 32  2  0  0  0
 31 69  1  0  0  0
 32 33  1  0  0  0
 32 70  1  0  0  0
 33 34  1  0  0  0
 34 35  1  0  0  0
 34 39  2  0  0  0
 35 36  2  0  0  0
 35 71  1  0  0  0
 36 37  1  0  0  0
 36 73  1  0  0  0
 37 38  2  0  0  0
 37 40  1  0  0  0
 38 39  1  0  0  0
 38 74  1  0  0  0
 39 72  1  0  0  0
 40 41  2  0  0  0
 40 42  1  0  0  0
 42 43  1  0  0  0
 43 75  1  0  0  0
 43 76  1  0  0  0
 43 77  1  0  0  0
M  END
$$$$
