LH4
  CCTOOLS-0919241030

 97103  0  0  1  0  0  0  0  0999 V2000
    2.8290    8.4610   -1.1340 O   0  0  0  0  0
    3.7450    7.7280   -0.8120 C   0  0  0  0  0
    4.7130    8.0980    0.0360 N   0  0  0  0  0
    5.6550    6.9810    0.2060 C   0  0  0  0  0
    3.8730    6.4760   -1.2700 N   0  0  0  0  0
    5.0840    5.8740   -0.6890 C   0  0  0  0  0
    4.6870    4.6190    0.1120 C   0  0  0  0  0
    4.3790    5.2920    1.7950 S   0  0  0  0  0
    5.6960    6.5720    1.6920 C   0  0  0  0  0
    3.4150    3.9900   -0.4610 C   0  0  0  0  0
    3.1170    2.6810    0.2730 C   0  0  0  0  0
    1.8450    2.0530   -0.3000 C   0  0  0  0  0
    1.5480    0.7440    0.4350 C   0  0  0  0  0
    0.2950    0.1240   -0.1290 C   0  0  0  0  0
   -0.3010    0.6760   -1.0300 O   0  0  0  0  0
   -0.1630   -1.0420    0.3670 N   0  0  0  0  0
   -1.3270   -1.6170   -0.1580 N   0  0  0  0  0
   -1.7390   -2.8750    0.2760 C   0  0  0  0  0
   -3.1010   -3.1730    0.3770 C   0  0  0  0  0
   -4.1150   -2.1510    0.0230 C   0  0  0  0  0
   -5.1570   -2.4710   -0.8460 C   0  0  0  0  0
   -6.0980   -1.5150   -1.1720 C   0  0  0  0  0
   -6.0070   -0.2410   -0.6400 C   0  0  0  0  0
   -7.2120    0.9740   -1.0620 S   0  0  0  0  0
   -7.7660    0.5740   -2.3080 O   0  0  0  0  0
   -8.4320    0.8610    0.0510 N   0  0  0  0  0
   -8.4010    1.6490    1.2930 C   0  0  0  0  0
   -9.7440    2.3720    1.4420 C   0  0  0  0  0
  -10.8060    1.4220    1.3200 O   0  0  0  0  0
  -10.8680    0.7740    0.0470 C   0  0  0  0  0
   -9.5850   -0.0260   -0.1760 C   0  0  0  0  0
   -6.5960    2.2380   -0.8550 O   0  0  0  0  0
   -4.9750    0.0820    0.2220 C   0  0  0  0  0
   -4.0320   -0.8670    0.5600 C   0  0  0  0  0
   -3.5030   -4.4340    0.8120 C   0  0  0  0  0
   -2.5610   -5.3880    1.1430 C   0  0  0  0  0
   -1.2130   -5.1030    1.0460 C   0  0  0  0  0
   -0.7920   -3.8490    0.6080 C   0  0  0  0  0
    0.6560   -3.5470    0.5000 C   0  0  0  0  0
    1.4970   -3.7490    1.5930 C   0  0  0  0  0
    2.8430   -3.4660    1.4870 C   0  0  0  0  0
    3.3590   -2.9830    0.2980 C   0  0  0  0  0
    2.5290   -2.7800   -0.7900 C   0  0  0  0  0
    1.1820   -3.0650   -0.6970 C   0  0  0  0  0
    5.0790   -2.6230    0.1690 S   0  0  0  0  0
    5.2140   -1.6740   -0.8800 O   0  0  0  0  0
    5.5400   -2.3890    1.4920 O   0  0  0  0  0
    5.8310   -4.0040   -0.3510 N   0  0  0  0  0
    6.0100   -4.2750   -1.7860 C   0  0  0  0  0
    7.4810   -4.6310   -2.0310 C   0  0  0  0  0
    7.8680   -5.6750   -1.1350 O   0  0  0  0  0
    7.7950   -5.3170    0.2470 C   0  0  0  0  0
    6.3450   -4.9940    0.6090 C   0  0  0  0  0
    4.7830    8.9640    0.4690 H   0  0  0  0  0
    3.2670    6.0360   -1.8870 H   0  0  0  0  0
    6.6490    7.2690   -0.1380 H   0  0  0  0  0
    5.7960    5.6170   -1.4730 H   0  0  0  0  0
    6.6670    6.1500    1.9500 H   0  0  0  0  0
    5.4600    7.4220    2.3320 H   0  0  0  0  0
    5.5030    3.8960    0.1280 H   0  0  0  0  0
    2.5790    4.6780   -0.3310 H   0  0  0  0  0
    3.5560    3.7870   -1.5230 H   0  0  0  0  0
    3.9530    1.9930    0.1430 H   0  0  0  0  0
    2.9760    2.8840    1.3350 H   0  0  0  0  0
    1.0100    2.7400   -0.1700 H   0  0  0  0  0
    1.9870    1.8490   -1.3610 H   0  0  0  0  0
    2.3840    0.0560    0.3050 H   0  0  0  0  0
    1.4060    0.9470    1.4960 H   0  0  0  0  0
    0.3140   -1.4830    1.0880 H   0  0  0  0  0
   -1.8470   -1.1400   -0.8230 H   0  0  0  0  0
   -4.5550   -4.6660    0.8910 H   0  0  0  0  0
   -5.2290   -3.4650   -1.2620 H   0  0  0  0  0
   -3.2290   -0.6150    1.2370 H   0  0  0  0  0
   -6.9060   -1.7620   -1.8450 H   0  0  0  0  0
   -4.9090    1.0780    0.6350 H   0  0  0  0  0
   -8.2440    0.9860    2.1450 H   0  0  0  0  0
   -7.5940    2.3800    1.2440 H   0  0  0  0  0
   -9.5620   -0.4040   -1.1980 H   0  0  0  0  0
   -9.5490   -0.8600    0.5250 H   0  0  0  0  0
   -9.7940    2.8500    2.4210 H   0  0  0  0  0
   -9.8390    3.1270    0.6620 H   0  0  0  0  0
  -11.7260    0.1030    0.0220 H   0  0  0  0  0
  -10.9670    1.5240   -0.7380 H   0  0  0  0  0
   -2.8800   -6.3640    1.4790 H   0  0  0  0  0
   -0.4830   -5.8550    1.3070 H   0  0  0  0  0
    1.0950   -4.1260    2.5220 H   0  0  0  0  0
    0.5360   -2.9110   -1.5490 H   0  0  0  0  0
    3.4950   -3.6220    2.3330 H   0  0  0  0  0
    2.9370   -2.4010   -1.7160 H   0  0  0  0  0
    5.3760   -5.1100   -2.0840 H   0  0  0  0  0
    5.7450   -3.3890   -2.3630 H   0  0  0  0  0
    6.3030   -4.5830    1.6180 H   0  0  0  0  0
    5.7450   -5.9030    0.5570 H   0  0  0  0  0
    7.6070   -4.9690   -3.0600 H   0  0  0  0  0
    8.1010   -3.7520   -1.8570 H   0  0  0  0  0
    8.1470   -6.1480    0.8580 H   0  0  0  0  0
    8.4170   -4.4410    0.4300 H   0  0  0  0  0
  1  2  2  0  0  0
  2  3  1  0  0  0
  2  5  1  0  0  0
  3  4  1  0  0  0
  3 54  1  0  0  0
  4  6  1  0  0  0
  4  9  1  0  0  0
  4 56  1  0  0  0
  5  6  1  0  0  0
  5 55  1  0  0  0
  6  7  1  0  0  0
  6 57  1  0  0  0
  7  8  1  0  0  0
  7 10  1  0  0  0
  7 60  1  0  0  0
  8  9  1  0  0  0
  9 58  1  0  0  0
  9 59  1  0  0  0
 10 11  1  0  0  0
 10 61  1  0  0  0
 10 62  1  0  0  0
 11 12  1  0  0  0
 11 63  1  0  0  0
 11 64  1  0  0  0
 12 13  1  0  0  0
 12 65  1  0  0  0
 12 66  1  0  0  0
 13 14  1  0  0  0
 13 67  1  0  0  0
 13 68  1  0  0  0
 14 15  2  0  0  0
 14 16  1  0  0  0
 16 17  1  0  0  0
 16 69  1  0  0  0
 17 18  1  0  0  0
 17 70  1  0  0  0
 18 19  1  0  0  0
 18 38  2  0  0  0
 19 20  1  0  0  0
 19 35  2  0  0  0
 20 21  1  0  0  0
 20 34  2  0  0  0
 21 22  2  0  0  0
 21 72  1  0  0  0
 22 23  1  0  0  0
 22 74  1  0  0  0
 23 24  1  0  0  0
 23 33  2  0  0  0
 24 25  2  0  0  0
 24 26  1  0  0  0
 24 32  2  0  0  0
 26 27  1  0  0  0
 26 31  1  0  0  0
 27 28  1  0  0  0
 27 76  1  0  0  0
 27 77  1  0  0  0
 28 29  1  0  0  0
 28 80  1  0  0  0
 28 81  1  0  0  0
 29 30  1  0  0  0
 30 31  1  0  0  0
 30 82  1  0  0  0
 30 83  1  0  0  0
 31 78  1  0  0  0
 31 79  1  0  0  0
 33 34  1  0  0  0
 33 75  1  0  0  0
 34 73  1  0  0  0
 35 36  1  0  0  0
 35 71  1  0  0  0
 36 37  2  0  0  0
 36 84  1  0  0  0
 37 38  1  0  0  0
 37 85  1  0  0  0
 38 39  1  0  0  0
 39 40  1  0  0  0
 39 44  2  0  0  0
 40 41  2  0  0  0
 40 86  1  0  0  0
 41 42  1  0  0  0
 41 88  1  0  0  0
 42 43  2  0  0  0
 42 45  1  0  0  0
 43 44  1  0  0  0
 43 89  1  0  0  0
 44 87  1  0  0  0
 45 46  2  0  0  0
 45 47  2  0  0  0
 45 48  1  0  0  0
 48 49  1  0  0  0
 48 53  1  0  0  0
 49 50  1  0  0  0
 49 90  1  0  0  0
 49 91  1  0  0  0
 50 51  1  0  0  0
 50 94  1  0  0  0
 50 95  1  0  0  0
 51 52  1  0  0  0
 52 53  1  0  0  0
 52 96  1  0  0  0
 52 97  1  0  0  0
 53 92  1  0  0  0
 53 93  1  0  0  0
M  END
$$$$
