LHG
  CCTOOLS-0919241030

124123  0  0  1  0  0  0  0  0999 V2000
   -3.9220    5.0830   -5.5370 O   0  0  0  0  0
   -3.0310    5.5600   -4.5270 C   0  0  0  0  0
   -2.8140    4.4660   -3.4790 C   0  0  0  0  0
   -4.0460    4.2030   -2.8040 O   0  0  0  0  0
   -1.7660    4.9310   -2.4660 C   0  0  0  0  0
   -1.4790    3.8670   -1.5560 O   0  0  0  0  0
   -0.3750    4.4220   -0.5240 P   0  0  0  0  0
    0.9930    4.7310   -1.3160 O   0  0  0  0  0
   -0.8710    5.6650    0.1070 O   0  0  0  0  0
   -0.0980    3.3160    0.6120 O   0  0  0  0  0
    0.7950    3.9090    1.5570 C   0  0  0  0  0
    1.1000    2.9050    2.6700 C   0  0  0  0  0
   -0.2110    2.4180    3.2920 C   0  0  0  0  0
    1.8220    1.7730    2.1170 O   0  0  0  0  0
    3.1640    1.7910    2.0720 C   0  0  0  0  0
    3.7700    2.7470    2.4930 O   0  0  0  0  0
    3.9140    0.6160    1.4980 C   0  0  0  0  0
    5.4180    0.8890    1.5650 C   0  0  0  0  0
    6.1790   -0.3030    0.9820 C   0  0  0  0  0
   -1.0710    1.8850    2.2510 O   0  0  0  0  0
   -2.2820    1.3970    2.5650 C   0  0  0  0  0
   -2.6550    1.4020    3.7140 O   0  0  0  0  0
   -3.1750    0.8440    1.4850 C   0  0  0  0  0
    7.6830   -0.0300    1.0500 C   0  0  0  0  0
    8.4440   -1.2220    0.4660 C   0  0  0  0  0
    9.9480   -0.9490    0.5340 C   0  0  0  0  0
   10.7100   -2.1410   -0.0490 C   0  0  0  0  0
   12.2130   -1.8680    0.0180 C   0  0  0  0  0
   12.9750   -3.0600   -0.5650 C   0  0  0  0  0
   14.4790   -2.7870   -0.4980 C   0  0  0  0  0
   15.2400   -3.9790   -1.0810 C   0  0  0  0  0
   16.7440   -3.7070   -1.0130 C   0  0  0  0  0
   17.5050   -4.8990   -1.5970 C   0  0  0  0  0
   19.0090   -4.6260   -1.5290 C   0  0  0  0  0
   19.7710   -5.8180   -2.1120 C   0  0  0  0  0
   -4.4860    0.3570    2.1060 C   0  0  0  0  0
   -5.3920   -0.2050    1.0090 C   0  0  0  0  0
   -6.7030   -0.6910    1.6310 C   0  0  0  0  0
   -7.6100   -1.2530    0.5340 C   0  0  0  0  0
   -8.9210   -1.7400    1.1550 C   0  0  0  0  0
   -9.8270   -2.3020    0.0580 C   0  0  0  0  0
  -11.1380   -2.7880    0.6800 C   0  0  0  0  0
  -12.0450   -3.3500   -0.4170 C   0  0  0  0  0
  -13.3550   -3.8370    0.2040 C   0  0  0  0  0
  -14.2620   -4.3990   -0.8930 C   0  0  0  0  0
  -15.5730   -4.8850   -0.2710 C   0  0  0  0  0
  -16.4790   -5.4470   -1.3680 C   0  0  0  0  0
  -17.7900   -5.9340   -0.7470 C   0  0  0  0  0
  -18.6970   -6.4960   -1.8440 C   0  0  0  0  0
   -4.0310    5.8010   -6.1750 H   0  0  0  0  0
   -3.4610    6.4410   -4.0490 H   0  0  0  0  0
   -2.0750    5.8240   -4.9800 H   0  0  0  0  0
   -2.4680    3.5570   -3.9700 H   0  0  0  0  0
   -4.3170    5.0310   -2.3840 H   0  0  0  0  0
   -2.1500    5.7880   -1.9130 H   0  0  0  0  0
   -0.8550    5.2160   -2.9910 H   0  0  0  0  0
    1.2810    3.8970   -1.7120 H   0  0  0  0  0
    0.3320    4.7970    1.9870 H   0  0  0  0  0
    1.7210    4.1880    1.0560 H   0  0  0  0  0
    1.7090    3.3850    3.4360 H   0  0  0  0  0
   -0.7110    3.2520    3.7850 H   0  0  0  0  0
    0.0010    1.6380    4.0230 H   0  0  0  0  0
    3.6810   -0.2800    2.0730 H   0  0  0  0  0
    3.6170    0.4690    0.4590 H   0  0  0  0  0
    5.6500    1.7860    0.9900 H   0  0  0  0  0
    5.7140    1.0370    2.6040 H   0  0  0  0  0
    5.9460   -1.1990    1.5570 H   0  0  0  0  0
    5.8830   -0.4500   -0.0570 H   0  0  0  0  0
   -2.6750    0.0100    0.9920 H   0  0  0  0  0
   -3.3870    1.6240    0.7540 H   0  0  0  0  0
    7.9160    0.8660    0.4750 H   0  0  0  0  0
    7.9790    0.1180    2.0880 H   0  0  0  0  0
    8.2110   -2.1180    1.0410 H   0  0  0  0  0
    8.1480   -1.3690   -0.5720 H   0  0  0  0  0
   10.1810   -0.0530   -0.0410 H   0  0  0  0  0
   10.2440   -0.8020    1.5720 H   0  0  0  0  0
   10.4770   -3.0370    0.5250 H   0  0  0  0  0
   10.4130   -2.2890   -1.0880 H   0  0  0  0  0
   12.4460   -0.9720   -0.5570 H   0  0  0  0  0
   12.5100   -1.7210    1.0570 H   0  0  0  0  0
   12.7420   -3.9570    0.0100 H   0  0  0  0  0
   12.6790   -3.2080   -1.6040 H   0  0  0  0  0
   14.7120   -1.8910   -1.0730 H   0  0  0  0  0
   14.7750   -2.6400    0.5410 H   0  0  0  0  0
   15.0070   -4.8760   -0.5060 H   0  0  0  0  0
   14.9440   -4.1270   -2.1190 H   0  0  0  0  0
   16.9770   -2.8100   -1.5880 H   0  0  0  0  0
   17.0400   -3.5590    0.0250 H   0  0  0  0  0
   17.2730   -5.7950   -1.0220 H   0  0  0  0  0
   17.2090   -5.0460   -2.6350 H   0  0  0  0  0
   19.2420   -3.7290   -2.1040 H   0  0  0  0  0
   19.3060   -4.4780   -0.4910 H   0  0  0  0  0
   20.8420   -5.6230   -2.0640 H   0  0  0  0  0
   19.5380   -6.7140   -1.5370 H   0  0  0  0  0
   19.4740   -5.9650   -3.1510 H   0  0  0  0  0
   -4.9860    1.1910    2.5990 H   0  0  0  0  0
   -4.2740   -0.4230    2.8370 H   0  0  0  0  0
   -4.8920   -1.0390    0.5160 H   0  0  0  0  0
   -5.6040    0.5750    0.2780 H   0  0  0  0  0
   -7.2030    0.1420    2.1240 H   0  0  0  0  0
   -6.4910   -1.4710    2.3620 H   0  0  0  0  0
   -7.1100   -2.0870    0.0410 H   0  0  0  0  0
   -7.8220   -0.4730   -0.1970 H   0  0  0  0  0
   -9.4200   -0.9060    1.6480 H   0  0  0  0  0
   -8.7080   -2.5200    1.8860 H   0  0  0  0  0
   -9.3270   -3.1360   -0.4350 H   0  0  0  0  0
  -10.0390   -1.5220   -0.6730 H   0  0  0  0  0
  -11.6380   -1.9550    1.1730 H   0  0  0  0  0
  -10.9260   -3.5680    1.4110 H   0  0  0  0  0
  -11.5450   -4.1840   -0.9100 H   0  0  0  0  0
  -12.2570   -2.5700   -1.1480 H   0  0  0  0  0
  -13.8550   -3.0030    0.6970 H   0  0  0  0  0
  -13.1430   -4.6170    0.9350 H   0  0  0  0  0
  -13.7620   -5.2330   -1.3860 H   0  0  0  0  0
  -14.4740   -3.6190   -1.6240 H   0  0  0  0  0
  -16.0730   -4.0520    0.2220 H   0  0  0  0  0
  -15.3610   -5.6650    0.4600 H   0  0  0  0  0
  -15.9800   -6.2810   -1.8610 H   0  0  0  0  0
  -16.6920   -4.6670   -2.0990 H   0  0  0  0  0
  -18.2900   -5.1000   -0.2540 H   0  0  0  0  0
  -17.5780   -6.7140   -0.0160 H   0  0  0  0  0
  -18.1970   -7.3300   -2.3370 H   0  0  0  0  0
  -19.6310   -6.8420   -1.4010 H   0  0  0  0  0
  -18.9090   -5.7160   -2.5750 H   0  0  0  0  0
  1  2  1  0  0  0
  1 50  1  0  0  0
  2  3  1  0  0  0
  2 51  1  0  0  0
  2 52  1  0  0  0
  3  4  1  0  0  0
  3  5  1  0  0  0
  3 53  1  0  0  0
  4 54  1  0  0  0
  5  6  1  0  0  0
  5 55  1  0  0  0
  5 56  1  0  0  0
  6  7  1  0  0  0
  7  8  1  0  0  0
  7  9  2  0  0  0
  7 10  1  0  0  0
  8 57  1  0  0  0
 10 11  1  0  0  0
 11 12  1  0  0  0
 11 58  1  0  0  0
 11 59  1  0  0  0
 12 13  1  0  0  0
 12 14  1  0  0  0
 12 60  1  0  0  0
 13 20  1  0  0  0
 13 61  1  0  0  0
 13 62  1  0  0  0
 14 15  1  0  0  0
 15 16  2  0  0  0
 15 17  1  0  0  0
 17 18  1  0  0  0
 17 63  1  0  0  0
 17 64  1  0  0  0
 18 19  1  0  0  0
 18 65  1  0  0  0
 18 66  1  0  0  0
 19 24  1  0  0  0
 19 67  1  0  0  0
 19 68  1  0  0  0
 20 21  1  0  0  0
 21 22  2  0  0  0
 21 23  1  0  0  0
 23 36  1  0  0  0
 23 69  1  0  0  0
 23 70  1  0  0  0
 24 25  1  0  0  0
 24 71  1  0  0  0
 24 72  1  0  0  0
 25 26  1  0  0  0
 25 73  1  0  0  0
 25 74  1  0  0  0
 26 27  1  0  0  0
 26 75  1  0  0  0
 26 76  1  0  0  0
 27 28  1  0  0  0
 27 77  1  0  0  0
 27 78  1  0  0  0
 28 29  1  0  0  0
 28 79  1  0  0  0
 28 80  1  0  0  0
 29 30  1  0  0  0
 29 81  1  0  0  0
 29 82  1  0  0  0
 30 31  1  0  0  0
 30 83  1  0  0  0
 30 84  1  0  0  0
 31 32  1  0  0  0
 31 85  1  0  0  0
 31 86  1  0  0  0
 32 33  1  0  0  0
 32 87  1  0  0  0
 32 88  1  0  0  0
 33 34  1  0  0  0
 33 89  1  0  0  0
 33 90  1  0  0  0
 34 35  1  0  0  0
 34 91  1  0  0  0
 34 92  1  0  0  0
 35 93  1  0  0  0
 35 94  1  0  0  0
 35 95  1  0  0  0
 36 37  1  0  0  0
 36 96  1  0  0  0
 36 97  1  0  0  0
 37 38  1  0  0  0
 37 98  1  0  0  0
 37 99  1  0  0  0
 38 39  1  0  0  0
 38100  1  0  0  0
 38101  1  0  0  0
 39 40  1  0  0  0
 39102  1  0  0  0
 39103  1  0  0  0
 40 41  1  0  0  0
 40104  1  0  0  0
 40105  1  0  0  0
 41 42  1  0  0  0
 41106  1  0  0  0
 41107  1  0  0  0
 42 43  1  0  0  0
 42108  1  0  0  0
 42109  1  0  0  0
 43 44  1  0  0  0
 43110  1  0  0  0
 43111  1  0  0  0
 44 45  1  0  0  0
 44112  1  0  0  0
 44113  1  0  0  0
 45 46  1  0  0  0
 45114  1  0  0  0
 45115  1  0  0  0
 46 47  1  0  0  0
 46116  1  0  0  0
 46117  1  0  0  0
 47 48  1  0  0  0
 47118  1  0  0  0
 47119  1  0  0  0
 48 49  1  0  0  0
 48120  1  0  0  0
 48121  1  0  0  0
 49122  1  0  0  0
 49123  1  0  0  0
 49124  1  0  0  0
M  END
$$$$
