LK1
  CCTOOLS-0919241030

 51 52  0  0  1  0  0  0  0  0999 V2000
    0.2640    4.4150    1.5630 O   0  0  0  0  0
    1.2570    5.3590    1.0870 S   0  0  0  0  0
    0.8460    6.6350    0.5330 O   0  0  0  0  0
    2.2940    4.5680   -0.0170 N   0  0  0  0  0
    3.0290    5.3340   -1.0220 C   0  0  0  0  0
    2.1270    5.5130   -2.2300 C   0  0  0  0  0
    2.7000    6.2990   -3.1800 O   0  0  0  0  0
    1.0130    5.0220   -2.3650 O   0  0  0  0  0
    4.3680    4.6730   -1.3910 C   0  0  0  0  0
    5.3060    4.3500   -0.2250 C   0  0  0  0  0
    5.7980    5.5650    0.5200 C   0  0  0  0  0
    6.1270    5.2940    1.8070 O   0  0  0  0  0
    5.8830    6.6820    0.0240 O   0  0  0  0  0
    2.3610    5.7090    2.4230 C   0  0  0  0  0
    2.5090    4.7820    3.4360 C   0  0  0  0  0
    3.3790    5.0560    4.4910 C   0  0  0  0  0
    4.1010    6.2600    4.5290 C   0  0  0  0  0
    4.9820    6.5530    5.5830 C   0  0  0  0  0
    5.6910    7.7540    5.6050 C   0  0  0  0  0
    5.5300    8.6780    4.5760 C   0  0  0  0  0
    4.6590    8.4030    3.5210 C   0  0  0  0  0
    3.9370    7.1990    3.4830 C   0  0  0  0  0
    3.0570    6.9060    2.4290 C   0  0  0  0  0
    6.5420    8.0230    6.6330 O   0  0  0  0  0
    6.7230    9.3940    6.9840 C   0  0  0  0  0
    7.0530    9.4820    8.4680 C   0  0  0  0  0
    7.2440   10.9280    8.9170 C   0  0  0  0  0
    7.5310   11.0140   10.4080 C   0  0  0  0  0
    2.1020    3.5800   -0.2420 H   0  0  0  0  0
    3.2200    6.3260   -0.5970 H   0  0  0  0  0
    4.8870    5.3080   -2.1210 H   0  0  0  0  0
    4.1550    3.7300   -1.9100 H   0  0  0  0  0
    2.1590    6.4470   -3.9850 H   0  0  0  0  0
    4.8290    3.6730    0.4930 H   0  0  0  0  0
    6.1880    3.8140   -0.5960 H   0  0  0  0  0
    6.4430    6.0630    2.3270 H   0  0  0  0  0
    1.9610    3.8430    3.4280 H   0  0  0  0  0
    2.9240    7.6210    1.6190 H   0  0  0  0  0
    3.4900    4.3200    5.2840 H   0  0  0  0  0
    5.1190    5.8410    6.3950 H   0  0  0  0  0
    6.0800    9.6150    4.5880 H   0  0  0  0  0
    4.5490    9.1390    2.7270 H   0  0  0  0  0
    5.8000    9.9370    6.7560 H   0  0  0  0  0
    7.5370    9.8040    6.3780 H   0  0  0  0  0
    7.9570    8.8970    8.6740 H   0  0  0  0  0
    6.2510    9.0080    9.0470 H   0  0  0  0  0
    6.3440   11.5110    8.6900 H   0  0  0  0  0
    8.0740   11.3830    8.3650 H   0  0  0  0  0
    6.7050   10.5950   10.9910 H   0  0  0  0  0
    8.4440   10.4680   10.6640 H   0  0  0  0  0
    7.6630   12.0580   10.7080 H   0  0  0  0  0
  1  2  2  0  0  0
  2  3  2  0  0  0
  2  4  1  0  0  0
  2 14  1  0  0  0
  4  5  1  0  0  0
  4 29  1  0  0  0
  5  6  1  0  0  0
  5  9  1  0  0  0
  5 30  1  0  0  0
  6  7  1  0  0  0
  6  8  2  0  0  0
  7 33  1  0  0  0
  9 10  1  0  0  0
  9 31  1  0  0  0
  9 32  1  0  0  0
 10 11  1  0  0  0
 10 34  1  0  0  0
 10 35  1  0  0  0
 11 12  1  0  0  0
 11 13  2  0  0  0
 12 36  1  0  0  0
 14 15  1  0  0  0
 14 23  2  0  0  0
 15 16  2  0  0  0
 15 37  1  0  0  0
 16 17  1  0  0  0
 16 39  1  0  0  0
 17 18  1  0  0  0
 17 22  2  0  0  0
 18 19  2  0  0  0
 18 40  1  0  0  0
 19 20  1  0  0  0
 19 24  1  0  0  0
 20 21  2  0  0  0
 20 41  1  0  0  0
 21 22  1  0  0  0
 21 42  1  0  0  0
 22 23  1  0  0  0
 23 38  1  0  0  0
 24 25  1  0  0  0
 25 26  1  0  0  0
 25 43  1  0  0  0
 25 44  1  0  0  0
 26 27  1  0  0  0
 26 45  1  0  0  0
 26 46  1  0  0  0
 27 28  1  0  0  0
 27 47  1  0  0  0
 27 48  1  0  0  0
 28 49  1  0  0  0
 28 50  1  0  0  0
 28 51  1  0  0  0
M  END
$$$$
