LK2
  CCTOOLS-0919241030

 51 52  0  0  1  0  0  0  0  0999 V2000
   -0.5210    2.7080    2.4060 O   0  0  0  0  0
   -1.1490    2.0170    1.2960 S   0  0  0  0  0
   -2.5010    1.5080    1.4250 O   0  0  0  0  0
   -0.1180    0.7620    0.7650 N   0  0  0  0  0
   -0.6620   -0.3920    0.0520 C   0  0  0  0  0
    0.3660   -0.8420   -0.9700 C   0  0  0  0  0
    1.4880   -0.3710   -1.1040 O   0  0  0  0  0
   -0.1010   -1.8540   -1.7490 O   0  0  0  0  0
   -1.0660   -1.5260    1.0090 C   0  0  0  0  0
    0.0380   -2.0640    1.9230 C   0  0  0  0  0
   -0.4350   -3.1060    2.9060 C   0  0  0  0  0
    0.5410   -3.5030    3.7590 O   0  0  0  0  0
   -1.5730   -3.5560    2.9280 O   0  0  0  0  0
   -1.1380    3.1020   -0.0990 C   0  0  0  0  0
   -0.1860    4.1000   -0.1700 C   0  0  0  0  0
   -0.1750    4.9570   -1.2700 C   0  0  0  0  0
   -1.1200    4.8130   -2.3000 C   0  0  0  0  0
   -2.0890    3.7850   -2.2110 C   0  0  0  0  0
   -2.0840    2.9320   -1.0960 C   0  0  0  0  0
   -1.1240    5.6660   -3.4150 C   0  0  0  0  0
   -2.0700    5.5090   -4.4280 C   0  0  0  0  0
   -3.0230    4.4980   -4.3410 C   0  0  0  0  0
   -3.0330    3.6410   -3.2400 C   0  0  0  0  0
   -2.0600    6.3440   -5.5030 O   0  0  0  0  0
   -3.3130    6.6050   -6.1340 C   0  0  0  0  0
   -3.2700    7.9930   -6.7570 C   0  0  0  0  0
   -4.5900    8.3460   -7.4380 C   0  0  0  0  0
   -4.5580    9.7490   -8.0210 C   0  0  0  0  0
    0.7670    0.6130    1.2710 H   0  0  0  0  0
   -1.5480   -0.0470   -0.4950 H   0  0  0  0  0
   -1.4960   -2.3480    0.4230 H   0  0  0  0  0
   -1.8750   -1.1600    1.6540 H   0  0  0  0  0
    0.5250   -2.1820   -2.4290 H   0  0  0  0  0
    0.8660   -2.4850    1.3420 H   0  0  0  0  0
    0.4730   -1.2410    2.5040 H   0  0  0  0  0
    0.2740   -4.1880    4.4080 H   0  0  0  0  0
    0.5560    4.2310    0.6140 H   0  0  0  0  0
   -2.8250    2.1380   -1.0180 H   0  0  0  0  0
    0.5790    5.7400   -1.3180 H   0  0  0  0  0
   -0.3850    6.4620   -3.4980 H   0  0  0  0  0
   -3.7870    2.8580   -3.1930 H   0  0  0  0  0
   -3.7610    4.3710   -5.1280 H   0  0  0  0  0
   -4.1030    6.5390   -5.3790 H   0  0  0  0  0
   -3.4850    5.8390   -6.8970 H   0  0  0  0  0
   -2.4450    8.0420   -7.4780 H   0  0  0  0  0
   -3.0340    8.7320   -5.9810 H   0  0  0  0  0
   -5.4120    8.2750   -6.7160 H   0  0  0  0  0
   -4.7990    7.6280   -8.2390 H   0  0  0  0  0
   -4.3810   10.4950   -7.2400 H   0  0  0  0  0
   -3.7670    9.8440   -8.7720 H   0  0  0  0  0
   -5.5130    9.9810   -8.5030 H   0  0  0  0  0
  1  2  2  0  0  0
  2  3  2  0  0  0
  2  4  1  0  0  0
  2 14  1  0  0  0
  4  5  1  0  0  0
  4 29  1  0  0  0
  5  6  1  0  0  0
  5  9  1  0  0  0
  5 30  1  0  0  0
  6  7  2  0  0  0
  6  8  1  0  0  0
  8 33  1  0  0  0
  9 10  1  0  0  0
  9 31  1  0  0  0
  9 32  1  0  0  0
 10 11  1  0  0  0
 10 34  1  0  0  0
 10 35  1  0  0  0
 11 12  1  0  0  0
 11 13  2  0  0  0
 12 36  1  0  0  0
 14 15  1  0  0  0
 14 19  2  0  0  0
 15 16  2  0  0  0
 15 37  1  0  0  0
 16 17  1  0  0  0
 16 39  1  0  0  0
 17 18  2  0  0  0
 17 20  1  0  0  0
 18 19  1  0  0  0
 18 23  1  0  0  0
 19 38  1  0  0  0
 20 21  2  0  0  0
 20 40  1  0  0  0
 21 22  1  0  0  0
 21 24  1  0  0  0
 22 23  2  0  0  0
 22 42  1  0  0  0
 23 41  1  0  0  0
 24 25  1  0  0  0
 25 26  1  0  0  0
 25 43  1  0  0  0
 25 44  1  0  0  0
 26 27  1  0  0  0
 26 45  1  0  0  0
 26 46  1  0  0  0
 27 28  1  0  0  0
 27 47  1  0  0  0
 27 48  1  0  0  0
 28 49  1  0  0  0
 28 50  1  0  0  0
 28 51  1  0  0  0
M  END
$$$$
