LL3
  CCTOOLS-0919241030

 44 47  0  0  0  0  0  0  0  0999 V2000
    6.5970    0.7230    0.5250 C   0  0  0  0  0
    7.8750    0.3450    0.1580 C   0  0  0  0  0
    8.1390   -0.9730   -0.1680 C   0  0  0  0  0
    7.1250   -1.9110   -0.1270 C   0  0  0  0  0
    5.8470   -1.5330    0.2410 C   0  0  0  0  0
    5.5830   -0.2150    0.5660 C   0  0  0  0  0
    4.1920    0.1960    0.9720 C   0  0  0  0  0
    3.4140    0.6130   -0.2500 C   0  0  0  0  0
    3.9390    0.5790   -1.3430 O   0  0  0  0  0
    2.1360    1.0230   -0.1280 N   0  0  0  0  0
    1.3660    1.4330   -1.3110 C   0  0  0  0  0
    0.0600    0.6330   -1.3490 C   0  0  0  0  0
    1.4850    1.0640    1.1880 C   0  0  0  0  0
    0.1770    0.2690    1.1160 C   0  0  0  0  0
   -0.6820    0.8120   -0.0220 C   0  0  0  0  0
   -1.9840    0.0540   -0.0730 C   0  0  0  0  0
   -3.1840    0.5610    0.0560 N   0  0  0  0  0
   -2.1290   -1.2610   -0.2650 O   0  0  0  0  0
   -3.3060   -1.5560   -0.2520 N   0  0  0  0  0
   -4.0350   -0.4850   -0.0580 C   0  0  0  0  0
   -5.5100   -0.4300    0.0170 C   0  0  0  0  0
   -6.3360   -1.4900   -0.0950 C   0  0  0  0  0
   -7.6770   -1.1890    0.0090 C   0  0  0  0  0
   -7.9540    0.1050    0.2050 C   0  0  0  0  0
   -6.4590    1.0290    0.2750 S   0  0  0  0  0
    6.3920    1.7520    0.7840 H   0  0  0  0  0
    8.6670    1.0780    0.1260 H   0  0  0  0  0
    9.1370   -1.2680   -0.4550 H   0  0  0  0  0
    7.3310   -2.9400   -0.3820 H   0  0  0  0  0
    5.0550   -2.2660    0.2730 H   0  0  0  0  0
    3.6900   -0.6440    1.4520 H   0  0  0  0  0
    4.2490    1.0320    1.6690 H   0  0  0  0  0
    1.1410    2.4970   -1.2490 H   0  0  0  0  0
    1.9440    1.2310   -2.2120 H   0  0  0  0  0
   -0.5640    0.9950   -2.1660 H   0  0  0  0  0
    0.2840   -0.4230   -1.5020 H   0  0  0  0  0
    2.1430    0.6190    1.9350 H   0  0  0  0  0
    1.2700    2.0980    1.4580 H   0  0  0  0  0
    0.4000   -0.7820    0.9360 H   0  0  0  0  0
   -0.3620    0.3710    2.0580 H   0  0  0  0  0
   -0.8840    1.8690    0.1470 H   0  0  0  0  0
   -5.9750   -2.4950   -0.2540 H   0  0  0  0  0
   -8.4470   -1.9420   -0.0620 H   0  0  0  0  0
   -8.9460    0.5190    0.3090 H   0  0  0  0  0
  1  6  1  0  0  0
  1 26  1  0  0  0
  2  1  2  0  0  0
  2  3  1  0  0  0
  2 27  1  0  0  0
  3  4  2  0  0  0
  3 28  1  0  0  0
  4  5  1  0  0  0
  4 29  1  0  0  0
  5 30  1  0  0  0
  6  5  2  0  0  0
  6  7  1  0  0  0
  7 31  1  0  0  0
  7 32  1  0  0  0
  8  7  1  0  0  0
  8 10  1  0  0  0
  9  8  2  0  0  0
 10 11  1  0  0  0
 11 12  1  0  0  0
 11 33  1  0  0  0
 11 34  1  0  0  0
 12 35  1  0  0  0
 12 36  1  0  0  0
 13 10  1  0  0  0
 13 14  1  0  0  0
 13 37  1  0  0  0
 13 38  1  0  0  0
 14 15  1  0  0  0
 14 39  1  0  0  0
 14 40  1  0  0  0
 15 12  1  0  0  0
 15 16  1  0  0  0
 15 41  1  0  0  0
 16 18  1  0  0  0
 17 16  2  0  0  0
 17 20  1  0  0  0
 18 19  1  0  0  0
 20 19  2  0  0  0
 21 20  1  0  0  0
 21 25  1  0  0  0
 22 21  2  0  0  0
 22 42  1  0  0  0
 23 22  1  0  0  0
 23 24  2  0  0  0
 23 43  1  0  0  0
 24 25  1  0  0  0
 24 44  1  0  0  0
M  END
$$$$
