LL4
  CCTOOLS-0919241030

 46 48  0  0  0  0  0  0  0  0999 V2000
    7.2130   -1.1010   -1.6340 C   0  0  0  0  0
    6.9300   -1.3530   -0.1520 C   0  0  0  0  0
    8.2510   -1.4030    0.6180 C   0  0  0  0  0
    6.0610   -0.2220    0.4010 C   0  0  0  0  0
    4.6920   -0.2500   -0.2830 C   0  0  0  0  0
    3.8360    0.8640    0.2610 C   0  0  0  0  0
    4.2760    1.6080    1.1120 O   0  0  0  0  0
    2.5800    1.0340   -0.1980 N   0  0  0  0  0
    1.7330    2.1160    0.3230 C   0  0  0  0  0
    0.4100    1.5150    0.8080 C   0  0  0  0  0
    2.0340    0.1460   -1.2330 C   0  0  0  0  0
    0.7080   -0.4370   -0.7330 C   0  0  0  0  0
   -0.2270    0.7090   -0.3260 C   0  0  0  0  0
   -1.5450    0.1420    0.1340 C   0  0  0  0  0
   -2.7200    0.3780   -0.3950 N   0  0  0  0  0
   -1.7340   -0.7000    1.1550 O   0  0  0  0  0
   -2.9120   -0.9660    1.2640 N   0  0  0  0  0
   -3.6010   -0.3400    0.3410 C   0  0  0  0  0
   -5.0630   -0.4070    0.1400 C   0  0  0  0  0
   -5.9190   -1.1310    0.8890 C   0  0  0  0  0
   -7.2400   -1.0350    0.5080 C   0  0  0  0  0
   -7.4710   -0.2410   -0.5430 C   0  0  0  0  0
   -5.9570    0.4500   -1.1090 S   0  0  0  0  0
    6.2720   -1.0650   -2.1830 H   0  0  0  0  0
    7.7360   -0.1520   -1.7480 H   0  0  0  0  0
    7.8330   -1.9070   -2.0280 H   0  0  0  0  0
    6.4070   -2.3020   -0.0380 H   0  0  0  0  0
    8.7750   -0.4540    0.5040 H   0  0  0  0  0
    8.0500   -1.5820    1.6740 H   0  0  0  0  0
    8.8710   -2.2090    0.2250 H   0  0  0  0  0
    5.9330   -0.3530    1.4750 H   0  0  0  0  0
    6.5440    0.7360    0.2070 H   0  0  0  0  0
    4.8200   -0.1180   -1.3580 H   0  0  0  0  0
    4.2090   -1.2080   -0.0890 H   0  0  0  0  0
    2.2380    2.6080    1.1540 H   0  0  0  0  0
    1.5370    2.8400   -0.4680 H   0  0  0  0  0
    0.5980    0.8600    1.6590 H   0  0  0  0  0
   -0.2650    2.3170    1.1090 H   0  0  0  0  0
    1.8620    0.7120   -2.1480 H   0  0  0  0  0
    2.7380   -0.6630   -1.4280 H   0  0  0  0  0
    0.2450   -1.0220   -1.5280 H   0  0  0  0  0
    0.8940   -1.0770    0.1290 H   0  0  0  0  0
   -0.3930    1.3640   -1.1810 H   0  0  0  0  0
   -5.5950   -1.7380    1.7210 H   0  0  0  0  0
   -8.0310   -1.5630    1.0210 H   0  0  0  0  0
   -8.4420   -0.0500   -0.9760 H   0  0  0  0  0
  1 24  1  0  0  0
  1 25  1  0  0  0
  1 26  1  0  0  0
  2  1  1  0  0  0
  2  4  1  0  0  0
  2 27  1  0  0  0
  3  2  1  0  0  0
  3 28  1  0  0  0
  3 29  1  0  0  0
  3 30  1  0  0  0
  4 31  1  0  0  0
  4 32  1  0  0  0
  5  4  1  0  0  0
  5 33  1  0  0  0
  5 34  1  0  0  0
  6  5  1  0  0  0
  6  8  1  0  0  0
  7  6  2  0  0  0
  8  9  1  0  0  0
  9 10  1  0  0  0
  9 35  1  0  0  0
  9 36  1  0  0  0
 10 37  1  0  0  0
 10 38  1  0  0  0
 11  8  1  0  0  0
 11 12  1  0  0  0
 11 39  1  0  0  0
 11 40  1  0  0  0
 12 13  1  0  0  0
 12 41  1  0  0  0
 12 42  1  0  0  0
 13 10  1  0  0  0
 13 14  1  0  0  0
 13 43  1  0  0  0
 14 16  1  0  0  0
 15 14  2  0  0  0
 15 18  1  0  0  0
 16 17  1  0  0  0
 18 17  2  0  0  0
 19 18  1  0  0  0
 19 20  2  0  0  0
 20 44  1  0  0  0
 21 20  1  0  0  0
 21 45  1  0  0  0
 22 21  2  0  0  0
 22 46  1  0  0  0
 23 19  1  0  0  0
 23 22  1  0  0  0
M  END
$$$$
