LL5
  CCTOOLS-0919241030

 45 47  0  0  1  0  0  0  0  0999 V2000
   -4.7980   -2.1700   -0.2190 C   0  0  0  0  0
   -5.7550   -1.0360    0.1550 C   0  0  0  0  0
   -6.7180   -1.5190    1.2420 C   0  0  0  0  0
   -4.9530    0.1570    0.6780 C   0  0  0  0  0
   -5.8750    1.1950    1.1570 N   0  0  0  0  0
   -4.1010    0.7150   -0.4330 C   0  0  0  0  0
   -4.5070    1.6430   -1.1000 O   0  0  0  0  0
   -2.8890    0.1840   -0.6860 N   0  0  0  0  0
   -2.0820    0.6630   -1.8160 C   0  0  0  0  0
   -0.6960    1.0630   -1.2980 C   0  0  0  0  0
   -2.3460   -0.8820    0.1680 C   0  0  0  0  0
   -0.9580   -0.4620    0.6590 C   0  0  0  0  0
   -0.0800   -0.1160   -0.5400 C   0  0  0  0  0
    1.2970    0.2660   -0.0620 C   0  0  0  0  0
    2.4210   -0.3300   -0.3730 N   0  0  0  0  0
    1.6010    1.2790    0.7560 O   0  0  0  0  0
    2.7980    1.3160    0.9460 N   0  0  0  0  0
    3.3880    0.3520    0.2840 C   0  0  0  0  0
    4.8370    0.0640    0.2580 C   0  0  0  0  0
    5.7810    0.7600    0.9220 C   0  0  0  0  0
    7.0690    0.3020    0.7430 C   0  0  0  0  0
    7.1850   -0.7620   -0.0590 C   0  0  0  0  0
    5.5960   -1.2460   -0.6370 S   0  0  0  0  0
   -4.1750   -2.4180    0.6400 H   0  0  0  0  0
   -5.3730   -3.0470   -0.5160 H   0  0  0  0  0
   -4.1650   -1.8520   -1.0480 H   0  0  0  0  0
   -6.3230   -0.7340   -0.7250 H   0  0  0  0  0
   -6.1500   -1.8210    2.1220 H   0  0  0  0  0
   -7.3990   -0.7110    1.5080 H   0  0  0  0  0
   -7.2890   -2.3690    0.8690 H   0  0  0  0  0
   -4.3120   -0.1680    1.4980 H   0  0  0  0  0
   -5.3690    1.9660    1.5670 H   0  0  0  0  0
   -6.4790    1.5120    0.4150 H   0  0  0  0  0
   -1.9800   -0.1310   -2.5550 H   0  0  0  0  0
   -2.5670    1.5260   -2.2710 H   0  0  0  0  0
   -0.0560    1.3290   -2.1390 H   0  0  0  0  0
   -0.7910    1.9170   -0.6280 H   0  0  0  0  0
   -3.0050   -1.0360    1.0230 H   0  0  0  0  0
   -2.2690   -1.8060   -0.4050 H   0  0  0  0  0
   -1.0490    0.4100    1.3080 H   0  0  0  0  0
   -0.5040   -1.2830    1.2140 H   0  0  0  0  0
   -0.0090   -0.9810   -1.2000 H   0  0  0  0  0
    5.5480    1.6110    1.5450 H   0  0  0  0  0
    7.9210    0.7670    1.2160 H   0  0  0  0  0
    8.1140   -1.2520   -0.3110 H   0  0  0  0  0
  1  2  1  0  0  0
  1 24  1  0  0  0
  1 25  1  0  0  0
  1 26  1  0  0  0
  2  4  1  0  0  0
  2  3  1  0  0  0
  2 27  1  0  0  0
  3 28  1  0  0  0
  3 29  1  0  0  0
  3 30  1  0  0  0
  4 31  1  0  0  0
  5  4  1  0  0  0
  5 32  1  0  0  0
  5 33  1  0  0  0
  6  4  1  0  0  0
  6  8  1  0  0  0
  7  6  2  0  0  0
  8  9  1  0  0  0
  9 34  1  0  0  0
  9 35  1  0  0  0
 10  9  1  0  0  0
 10 36  1  0  0  0
 10 37  1  0  0  0
 11  8  1  0  0  0
 11 38  1  0  0  0
 11 39  1  0  0  0
 12 11  1  0  0  0
 12 13  1  0  0  0
 12 40  1  0  0  0
 12 41  1  0  0  0
 13 10  1  0  0  0
 13 42  1  0  0  0
 14 13  1  0  0  0
 14 15  2  0  0  0
 16 14  1  0  0  0
 17 16  1  0  0  0
 17 18  2  0  0  0
 18 15  1  0  0  0
 18 19  1  0  0  0
 19 20  2  0  0  0
 20 43  1  0  0  0
 21 20  1  0  0  0
 21 44  1  0  0  0
 22 21  2  0  0  0
 22 45  1  0  0  0
 23 19  1  0  0  0
 23 22  1  0  0  0
M  END
$$$$
