LMG
  CCTOOLS-0919241030

141141  0  0  1  0  0  0  0  0999 V2000
   -4.6920   -1.1130    0.2880 C   0  0  0  0  0
   -3.8330    0.0100    0.0870 O   0  0  0  0  0
   -3.9700   -2.1580    1.1420 C   0  0  0  0  0
   -2.7650   -2.5600    0.4880 O   0  0  0  0  0
   -4.8850   -3.3750    1.3230 C   0  0  0  0  0
   -4.2890   -4.2960    2.2380 O   0  0  0  0  0
   -6.2310   -2.8960    1.8790 C   0  0  0  0  0
   -6.0490   -2.3800    3.1990 O   0  0  0  0  0
   -6.7830   -1.7940    0.9710 C   0  0  0  0  0
   -8.6620   -0.3100    0.6500 O   0  0  0  0  0
   -8.1420   -1.3340    1.5000 C   0  0  0  0  0
   -5.8820   -0.6890    0.9510 O   0  0  0  0  0
   -4.5580    0.9450   -0.7140 C   0  0  0  0  0
   -3.6910    2.1790   -0.9680 C   0  0  0  0  0
   -3.3250    2.8290    0.3670 C   0  0  0  0  0
   -2.4780    1.7840   -1.6620 O   0  0  0  0  0
   -2.4490    1.7640   -3.0040 C   0  0  0  0  0
   -3.4310    2.0760   -3.6340 O   0  0  0  0  0
   -1.1900    1.3540   -3.7240 C   0  0  0  0  0
   -1.4230    1.4180   -5.2350 C   0  0  0  0  0
   -0.1450    1.0010   -5.9660 C   0  0  0  0  0
   -0.3780    1.0650   -7.4770 C   0  0  0  0  0
    0.8980    0.6480   -8.2080 C   0  0  0  0  0
    0.6650    0.7120   -9.7190 C   0  0  0  0  0
    1.9430    0.2950  -10.4500 C   0  0  0  0  0
    1.7100    0.3590  -11.9610 C   0  0  0  0  0
    2.9880   -0.0570  -12.6920 C   0  0  0  0  0
    2.7550    0.0060  -14.2030 C   0  0  0  0  0
    4.0320   -0.4100  -14.9340 C   0  0  0  0  0
    3.7990   -0.3470  -16.4450 C   0  0  0  0  0
    5.0770   -0.7630  -17.1760 C   0  0  0  0  0
    4.8440   -0.7000  -18.6870 C   0  0  0  0  0
    6.1220   -1.1160  -19.4180 C   0  0  0  0  0
    5.8890   -1.0530  -20.9290 C   0  0  0  0  0
    7.1660   -1.4690  -21.6600 C   0  0  0  0  0
   -2.5890    1.8800    1.1820 O   0  0  0  0  0
   -2.1620    2.2340    2.4040 C   0  0  0  0  0
   -2.3910    3.3420    2.8260 O   0  0  0  0  0
   -1.3980    1.2480    3.2500 C   0  0  0  0  0
   -1.0320    1.8980    4.5860 C   0  0  0  0  0
   -0.2560    0.8980    5.4450 C   0  0  0  0  0
    0.1090    1.5480    6.7800 C   0  0  0  0  0
    0.8850    0.5470    7.6390 C   0  0  0  0  0
    1.2500    1.1970    8.9750 C   0  0  0  0  0
    2.0260    0.1970    9.8340 C   0  0  0  0  0
    2.3920    0.8470   11.1700 C   0  0  0  0  0
    3.1680   -0.1530   12.0290 C   0  0  0  0  0
    3.5330    0.4970   13.3640 C   0  0  0  0  0
    4.3090   -0.5030   14.2230 C   0  0  0  0  0
    4.6750    0.1460   15.5590 C   0  0  0  0  0
    5.4510   -0.8530   16.4180 C   0  0  0  0  0
    5.8170   -0.2030   17.7540 C   0  0  0  0  0
    6.5920   -1.2040   18.6120 C   0  0  0  0  0
    6.9580   -0.5540   19.9480 C   0  0  0  0  0
    7.7340   -1.5540   20.8070 C   0  0  0  0  0
   -4.9500   -1.5490   -0.6760 H   0  0  0  0  0
   -3.7320   -1.7330    2.1170 H   0  0  0  0  0
   -2.2190   -1.7660    0.3950 H   0  0  0  0  0
   -5.0400   -3.8630    0.3610 H   0  0  0  0  0
   -3.4470   -4.5700    1.8490 H   0  0  0  0  0
   -6.9320   -3.7300    1.9070 H   0  0  0  0  0
   -5.7010   -3.1050    3.7370 H   0  0  0  0  0
   -6.9010   -2.1840   -0.0400 H   0  0  0  0  0
   -9.5170   -0.0480    1.0180 H   0  0  0  0  0
   -8.8310   -2.1780    1.5160 H   0  0  0  0  0
   -8.0240   -0.9420    2.5110 H   0  0  0  0  0
   -5.4680    1.2420   -0.1930 H   0  0  0  0  0
   -4.8190    0.4820   -1.6660 H   0  0  0  0  0
   -4.2430    2.8920   -1.5800 H   0  0  0  0  0
   -4.2350    3.1260    0.8870 H   0  0  0  0  0
   -2.7070    3.7090    0.1860 H   0  0  0  0  0
   -0.3790    2.0300   -3.4530 H   0  0  0  0  0
   -0.9240    0.3360   -3.4400 H   0  0  0  0  0
   -2.2340    0.7410   -5.5060 H   0  0  0  0  0
   -1.6890    2.4360   -5.5190 H   0  0  0  0  0
    0.6640    1.6770   -5.6950 H   0  0  0  0  0
    0.1200   -0.0160   -5.6820 H   0  0  0  0  0
   -1.1890    0.3880   -7.7480 H   0  0  0  0  0
   -0.6440    2.0830   -7.7610 H   0  0  0  0  0
    1.7090    1.3240   -7.9370 H   0  0  0  0  0
    1.1640   -0.3690   -7.9240 H   0  0  0  0  0
   -0.1440    0.0350   -9.9900 H   0  0  0  0  0
    0.4000    1.7300  -10.0030 H   0  0  0  0  0
    2.7540    0.9710  -10.1790 H   0  0  0  0  0
    2.2090   -0.7220  -10.1660 H   0  0  0  0  0
    0.8990   -0.3170  -12.2320 H   0  0  0  0  0
    1.4440    1.3770  -12.2450 H   0  0  0  0  0
    3.7980    0.6180  -12.4210 H   0  0  0  0  0
    3.2540   -1.0750  -12.4080 H   0  0  0  0  0
    1.9440   -0.6700  -14.4740 H   0  0  0  0  0
    2.4890    1.0240  -14.4870 H   0  0  0  0  0
    4.8430    0.2650  -14.6630 H   0  0  0  0  0
    4.2980   -1.4280  -14.6500 H   0  0  0  0  0
    2.9890   -1.0230  -16.7160 H   0  0  0  0  0
    3.5340    0.6710  -16.7290 H   0  0  0  0  0
    5.8880   -0.0870  -16.9050 H   0  0  0  0  0
    5.3430   -1.7810  -16.8920 H   0  0  0  0  0
    4.0330   -1.3760  -18.9580 H   0  0  0  0  0
    4.5780    0.3180  -18.9710 H   0  0  0  0  0
    6.9320   -0.4400  -19.1470 H   0  0  0  0  0
    6.3880   -2.1340  -19.1340 H   0  0  0  0  0
    5.0780   -1.7290  -21.2000 H   0  0  0  0  0
    5.6230   -0.0340  -21.2130 H   0  0  0  0  0
    7.0000   -1.4240  -22.7360 H   0  0  0  0  0
    7.9770   -0.7930  -21.3890 H   0  0  0  0  0
    7.4320   -2.4870  -21.3760 H   0  0  0  0  0
   -0.4870    0.9510    2.7290 H   0  0  0  0  0
   -2.0160    0.3690    3.4310 H   0  0  0  0  0
   -1.9420    2.1950    5.1070 H   0  0  0  0  0
   -0.4140    2.7780    4.4050 H   0  0  0  0  0
    0.6530    0.6010    4.9240 H   0  0  0  0  0
   -0.8740    0.0180    5.6260 H   0  0  0  0  0
   -0.8010    1.8450    7.3010 H   0  0  0  0  0
    0.7270    2.4270    6.5990 H   0  0  0  0  0
    1.7950    0.2510    7.1180 H   0  0  0  0  0
    0.2660   -0.3310    7.8200 H   0  0  0  0  0
    0.3400    1.4940    9.4960 H   0  0  0  0  0
    1.8680    2.0770    8.7940 H   0  0  0  0  0
    2.9360   -0.0990    9.3130 H   0  0  0  0  0
    1.4080   -0.6820   10.0150 H   0  0  0  0  0
    1.4810    1.1440   11.6910 H   0  0  0  0  0
    3.0100    1.7260   10.9890 H   0  0  0  0  0
    4.0780   -0.4490   11.5080 H   0  0  0  0  0
    2.5500   -1.0320   12.2100 H   0  0  0  0  0
    2.6230    0.7930   13.8850 H   0  0  0  0  0
    4.1510    1.3760   13.1830 H   0  0  0  0  0
    5.2200   -0.8000   13.7020 H   0  0  0  0  0
    3.6910   -1.3820   14.4040 H   0  0  0  0  0
    3.7650    0.4430   16.0800 H   0  0  0  0  0
    5.2930    1.0260   15.3780 H   0  0  0  0  0
    6.3610   -1.1500   15.8970 H   0  0  0  0  0
    4.8330   -1.7330   16.5990 H   0  0  0  0  0
    4.9060    0.0930   18.2750 H   0  0  0  0  0
    6.4350    0.6750   17.5730 H   0  0  0  0  0
    7.5030   -1.5010   18.0920 H   0  0  0  0  0
    5.9740   -2.0830   18.7940 H   0  0  0  0  0
    6.0480   -0.2570   20.4690 H   0  0  0  0  0
    7.5760    0.3250   19.7670 H   0  0  0  0  0
    7.9950   -1.0910   21.7590 H   0  0  0  0  0
    7.1160   -2.4340   20.9880 H   0  0  0  0  0
    8.6440   -1.8510   20.2860 H   0  0  0  0  0
  1  2  1  0  0  0
  1  3  1  0  0  0
  1 12  1  0  0  0
  1 56  1  0  0  0
  2 13  1  0  0  0
  3  4  1  0  0  0
  3  5  1  0  0  0
  3 57  1  0  0  0
  4 58  1  0  0  0
  5  6  1  0  0  0
  5  7  1  0  0  0
  5 59  1  0  0  0
  6 60  1  0  0  0
  7  8  1  0  0  0
  7  9  1  0  0  0
  7 61  1  0  0  0
  8 62  1  0  0  0
  9 11  1  0  0  0
  9 12  1  0  0  0
  9 63  1  0  0  0
 10 11  1  0  0  0
 10 64  1  0  0  0
 11 65  1  0  0  0
 11 66  1  0  0  0
 13 14  1  0  0  0
 13 67  1  0  0  0
 13 68  1  0  0  0
 14 15  1  0  0  0
 14 16  1  0  0  0
 14 69  1  0  0  0
 15 36  1  0  0  0
 15 70  1  0  0  0
 15 71  1  0  0  0
 16 17  1  0  0  0
 17 18  2  0  0  0
 17 19  1  0  0  0
 19 20  1  0  0  0
 19 72  1  0  0  0
 19 73  1  0  0  0
 20 21  1  0  0  0
 20 74  1  0  0  0
 20 75  1  0  0  0
 21 22  1  0  0  0
 21 76  1  0  0  0
 21 77  1  0  0  0
 22 23  1  0  0  0
 22 78  1  0  0  0
 22 79  1  0  0  0
 23 24  1  0  0  0
 23 80  1  0  0  0
 23 81  1  0  0  0
 24 25  1  0  0  0
 24 82  1  0  0  0
 24 83  1  0  0  0
 25 26  1  0  0  0
 25 84  1  0  0  0
 25 85  1  0  0  0
 26 27  1  0  0  0
 26 86  1  0  0  0
 26 87  1  0  0  0
 27 28  1  0  0  0
 27 88  1  0  0  0
 27 89  1  0  0  0
 28 29  1  0  0  0
 28 90  1  0  0  0
 28 91  1  0  0  0
 29 30  1  0  0  0
 29 92  1  0  0  0
 29 93  1  0  0  0
 30 31  1  0  0  0
 30 94  1  0  0  0
 30 95  1  0  0  0
 31 32  1  0  0  0
 31 96  1  0  0  0
 31 97  1  0  0  0
 32 33  1  0  0  0
 32 98  1  0  0  0
 32 99  1  0  0  0
 33 34  1  0  0  0
 33100  1  0  0  0
 33101  1  0  0  0
 34 35  1  0  0  0
 34102  1  0  0  0
 34103  1  0  0  0
 35104  1  0  0  0
 35105  1  0  0  0
 35106  1  0  0  0
 36 37  1  0  0  0
 37 38  2  0  0  0
 37 39  1  0  0  0
 39 40  1  0  0  0
 39107  1  0  0  0
 39108  1  0  0  0
 40 41  1  0  0  0
 40109  1  0  0  0
 40110  1  0  0  0
 41 42  1  0  0  0
 41111  1  0  0  0
 41112  1  0  0  0
 42 43  1  0  0  0
 42113  1  0  0  0
 42114  1  0  0  0
 43 44  1  0  0  0
 43115  1  0  0  0
 43116  1  0  0  0
 44 45  1  0  0  0
 44117  1  0  0  0
 44118  1  0  0  0
 45 46  1  0  0  0
 45119  1  0  0  0
 45120  1  0  0  0
 46 47  1  0  0  0
 46121  1  0  0  0
 46122  1  0  0  0
 47 48  1  0  0  0
 47123  1  0  0  0
 47124  1  0  0  0
 48 49  1  0  0  0
 48125  1  0  0  0
 48126  1  0  0  0
 49 50  1  0  0  0
 49127  1  0  0  0
 49128  1  0  0  0
 50 51  1  0  0  0
 50129  1  0  0  0
 50130  1  0  0  0
 51 52  1  0  0  0
 51131  1  0  0  0
 51132  1  0  0  0
 52 53  1  0  0  0
 52133  1  0  0  0
 52134  1  0  0  0
 53 54  1  0  0  0
 53135  1  0  0  0
 53136  1  0  0  0
 54 55  1  0  0  0
 54137  1  0  0  0
 54138  1  0  0  0
 55139  1  0  0  0
 55140  1  0  0  0
 55141  1  0  0  0
M  END
$$$$
