LMR
  CCTOOLS-1004241128

 15 14  0  0  1  0  0  0  0  0999 V2000
    1.8710    0.1850   -0.0540 C   0  0  0  0  0
    2.6360   -0.5130    0.5680 O   0  0  0  0  0
    2.2670    1.3900   -0.4940 O   0  0  0  0  0
    0.4730   -0.2990   -0.3410 C   0  0  0  0  0
    0.3310   -1.6440    0.1180 O   0  0  0  0  0
   -0.5350    0.5960    0.3840 C   0  0  0  0  0
   -1.9350    0.1890   -0.0000 C   0  0  0  0  0
   -2.9880    0.8400    0.5170 O   0  0  0  0  0
   -2.1080   -0.7230   -0.7740 O   0  0  0  0  0
    0.2880   -0.2590   -1.4140 H   0  0  0  0  0
    0.4820   -1.7540    1.0670 H   0  0  0  0  0
   -0.4080    0.4890    1.4610 H   0  0  0  0  0
   -0.3680    1.6350    0.1000 H   0  0  0  0  0
    3.1740    1.6550   -0.2890 H   0  0  0  0  0
   -3.8660    0.5430    0.2410 H   0  0  0  0  0
  1  2  2  0  0  0
  1  3  1  0  0  0
  1  4  1  0  0  0
  3 14  1  0  0  0
  4  5  1  0  0  0
  4  6  1  0  0  0
  4 10  1  0  0  0
  5 11  1  0  0  0
  6  7  1  0  0  0
  6 12  1  0  0  0
  6 13  1  0  0  0
  7  8  1  0  0  0
  7  9  2  0  0  0
  8 15  1  0  0  0
M  END
$$$$
