LMT
  CCTOOLS-0919241030

 81 82  0  0  1  0  0  0  0  0999 V2000
   -0.5120    0.3210   -5.6430 C   0  0  0  0  0
   -0.4600   -0.4680   -6.9530 C   0  0  0  0  0
    0.9060   -1.1480   -7.0740 C   0  0  0  0  0
    1.9980   -0.0850   -6.9100 C   0  0  0  0  0
    1.7620    0.6750   -5.6040 C   0  0  0  0  0
    2.8670    1.7170   -5.4160 C   0  0  0  0  0
   -0.2910   -0.5650   -4.5450 O   0  0  0  0  0
   -1.4890   -1.4590   -6.9550 O   0  0  0  0  0
    1.0260   -1.7660   -8.3570 O   0  0  0  0  0
    3.2800   -0.7160   -6.8710 O   0  0  0  0  0
    0.4950    1.3300   -5.6480 O   0  0  0  0  0
    2.6520    2.4240   -4.1930 O   0  0  0  0  0
   -1.7050   -0.0390   -0.7120 C   0  0  0  0  0
   -2.5910    0.5620   -1.8050 C   0  0  0  0  0
   -2.2060   -0.0540   -3.1550 C   0  0  0  0  0
   -0.6990    0.1280   -3.3640 C   0  0  0  0  0
    0.0440   -0.4380   -2.1530 C   0  0  0  0  0
    1.5510   -0.2890   -2.3690 C   0  0  0  0  0
   -2.0790    0.5050    0.5540 O   0  0  0  0  0
   -3.9620    0.2740   -1.5220 O   0  0  0  0  0
   -2.9190    0.6010   -4.2060 O   0  0  0  0  0
   -0.3380    0.2690   -0.9760 O   0  0  0  0  0
    2.2500   -0.8960   -1.2800 O   0  0  0  0  0
   -1.2230   -0.0930    1.5300 C   0  0  0  0  0
   -1.5730    0.4490    2.9170 C   0  0  0  0  0
   -0.6560   -0.1910    3.9610 C   0  0  0  0  0
   -1.0060    0.3510    5.3480 C   0  0  0  0  0
   -0.0900   -0.2890    6.3920 C   0  0  0  0  0
   -0.4390    0.2530    7.7790 C   0  0  0  0  0
    0.4760   -0.3870    8.8240 C   0  0  0  0  0
    0.1260    0.1540   10.2110 C   0  0  0  0  0
    1.0430   -0.4860   11.2550 C   0  0  0  0  0
    0.6930    0.0560   12.6420 C   0  0  0  0  0
    1.6090   -0.5840   13.6870 C   0  0  0  0  0
    1.2600   -0.0410   15.0740 C   0  0  0  0  0
   -1.4910    0.7880   -5.5400 H   0  0  0  0  0
   -0.6050    0.2100   -7.7940 H   0  0  0  0  0
    1.0100   -1.9020   -6.2940 H   0  0  0  0  0
    1.9590    0.6090   -7.7490 H   0  0  0  0  0
    1.7780   -0.0240   -4.7690 H   0  0  0  0  0
    3.8350    1.2170   -5.3820 H   0  0  0  0  0
    2.8490    2.4190   -6.2500 H   0  0  0  0  0
   -2.3310   -0.9890   -6.8770 H   0  0  0  0  0
    0.3220   -2.4260   -8.4160 H   0  0  0  0  0
    3.3870   -1.1820   -7.7110 H   0  0  0  0  0
    3.3680    3.0690   -4.1140 H   0  0  0  0  0
   -1.8350   -1.1210   -0.6940 H   0  0  0  0  0
   -2.4450    1.6410   -1.8430 H   0  0  0  0  0
   -2.4500   -1.1160   -3.1560 H   0  0  0  0  0
   -0.4710    1.1890   -3.4680 H   0  0  0  0  0
   -0.2020   -1.4930   -2.0380 H   0  0  0  0  0
    1.8350   -0.7780   -3.3010 H   0  0  0  0  0
    1.8090    0.7680   -2.4210 H   0  0  0  0  0
   -4.1610    0.6790   -0.6670 H   0  0  0  0  0
   -3.8610    0.4610   -4.0350 H   0  0  0  0  0
    3.1940   -0.7810   -1.4550 H   0  0  0  0  0
   -0.1850    0.1440    1.2970 H   0  0  0  0  0
   -1.3590   -1.1740    1.5180 H   0  0  0  0  0
   -2.6110    0.2110    3.1490 H   0  0  0  0  0
   -1.4370    1.5300    2.9290 H   0  0  0  0  0
    0.3810    0.0460    3.7290 H   0  0  0  0  0
   -0.7930   -1.2720    3.9490 H   0  0  0  0  0
   -2.0440    0.1130    5.5800 H   0  0  0  0  0
   -0.8700    1.4320    5.3600 H   0  0  0  0  0
    0.9470   -0.0510    6.1600 H   0  0  0  0  0
   -0.2260   -1.3710    6.3800 H   0  0  0  0  0
   -1.4770    0.0140    8.0120 H   0  0  0  0  0
   -0.3030    1.3340    7.7910 H   0  0  0  0  0
    1.5140   -0.1490    8.5910 H   0  0  0  0  0
    0.3400   -1.4690    8.8120 H   0  0  0  0  0
   -0.9110   -0.0830   10.4430 H   0  0  0  0  0
    0.2630    1.2360   10.2230 H   0  0  0  0  0
    2.0810   -0.2480   11.0230 H   0  0  0  0  0
    0.9070   -1.5670   11.2430 H   0  0  0  0  0
   -0.3440   -0.1810   12.8750 H   0  0  0  0  0
    0.8290    1.1380   12.6540 H   0  0  0  0  0
    2.6470   -0.3460   13.4540 H   0  0  0  0  0
    1.4730   -1.6650   13.6750 H   0  0  0  0  0
    1.9130   -0.4980   15.8180 H   0  0  0  0  0
    1.3960    1.0390   15.0860 H   0  0  0  0  0
    0.2220   -0.2790   15.3060 H   0  0  0  0  0
  1  2  1  0  0  0
  1  7  1  0  0  0
  1 11  1  0  0  0
  1 36  1  0  0  0
  2  3  1  0  0  0
  2  8  1  0  0  0
  2 37  1  0  0  0
  3  4  1  0  0  0
  3  9  1  0  0  0
  3 38  1  0  0  0
  4  5  1  0  0  0
  4 10  1  0  0  0
  4 39  1  0  0  0
  5  6  1  0  0  0
  5 11  1  0  0  0
  5 40  1  0  0  0
  6 12  1  0  0  0
  6 41  1  0  0  0
  6 42  1  0  0  0
  7 16  1  0  0  0
  8 43  1  0  0  0
  9 44  1  0  0  0
 10 45  1  0  0  0
 12 46  1  0  0  0
 13 14  1  0  0  0
 13 19  1  0  0  0
 13 22  1  0  0  0
 13 47  1  0  0  0
 14 15  1  0  0  0
 14 20  1  0  0  0
 14 48  1  0  0  0
 15 16  1  0  0  0
 15 21  1  0  0  0
 15 49  1  0  0  0
 16 17  1  0  0  0
 16 50  1  0  0  0
 17 18  1  0  0  0
 17 22  1  0  0  0
 17 51  1  0  0  0
 18 23  1  0  0  0
 18 52  1  0  0  0
 18 53  1  0  0  0
 19 24  1  0  0  0
 20 54  1  0  0  0
 21 55  1  0  0  0
 23 56  1  0  0  0
 24 25  1  0  0  0
 24 57  1  0  0  0
 24 58  1  0  0  0
 25 26  1  0  0  0
 25 59  1  0  0  0
 25 60  1  0  0  0
 26 27  1  0  0  0
 26 61  1  0  0  0
 26 62  1  0  0  0
 27 28  1  0  0  0
 27 63  1  0  0  0
 27 64  1  0  0  0
 28 29  1  0  0  0
 28 65  1  0  0  0
 28 66  1  0  0  0
 29 30  1  0  0  0
 29 67  1  0  0  0
 29 68  1  0  0  0
 30 31  1  0  0  0
 30 69  1  0  0  0
 30 70  1  0  0  0
 31 32  1  0  0  0
 31 71  1  0  0  0
 31 72  1  0  0  0
 32 33  1  0  0  0
 32 73  1  0  0  0
 32 74  1  0  0  0
 33 34  1  0  0  0
 33 75  1  0  0  0
 33 76  1  0  0  0
 34 35  1  0  0  0
 34 77  1  0  0  0
 34 78  1  0  0  0
 35 79  1  0  0  0
 35 80  1  0  0  0
 35 81  1  0  0  0
M  END
$$$$
