LOC
  CCTOOLS-0919241031

 54 56  0  0  1  0  0  0  0  0999 V2000
   -1.2250    2.4910   -2.2540 O   0  0  0  0  0
   -1.8310    3.1570   -1.4420 C   0  0  0  0  0
   -2.8390    4.1770   -1.9050 C   0  0  0  0  0
   -1.6080    2.9800   -0.1240 N   0  0  0  0  0
   -0.6320    1.9850    0.3260 C   0  0  0  0  0
   -1.3070    0.6310    0.4020 C   0  0  0  0  0
   -2.6490    0.6370    0.4780 C   0  0  0  0  0
   -0.0760    2.4110    1.6700 C   0  0  0  0  0
    0.6610    1.2610    2.3500 C   0  0  0  0  0
    1.5390    0.5570    1.3470 C   0  0  0  0  0
    2.9020    0.7670    1.3520 C   0  0  0  0  0
    3.7110    0.1090    0.4330 C   0  0  0  0  0
    3.1530   -0.7640   -0.4950 C   0  0  0  0  0
    1.7800   -0.9770   -0.5080 C   0  0  0  0  0
    1.2270   -1.8290   -1.4110 O   0  0  0  0  0
    0.9270   -1.2980   -2.7030 C   0  0  0  0  0
    3.9510   -1.4080   -1.3890 O   0  0  0  0  0
    4.4780   -2.6760   -0.9930 C   0  0  0  0  0
    5.0530    0.3200    0.4410 O   0  0  0  0  0
    5.5620    1.2290    1.4190 C   0  0  0  0  0
    0.9730   -0.3070    0.4160 C   0  0  0  0  0
   -0.5060   -0.5120    0.3900 C   0  0  0  0  0
   -0.9480   -1.8100    0.3610 C   0  0  0  0  0
   -2.1790   -2.3560    0.3780 C   0  0  0  0  0
   -3.3860   -1.7350    0.4590 C   0  0  0  0  0
   -3.5820   -0.3600    0.5350 C   0  0  0  0  0
   -4.7420    0.0040    0.6700 O   0  0  0  0  0
   -4.4900   -2.5210    0.4670 O   0  0  0  0  0
   -4.2820   -3.9320    0.3890 C   0  0  0  0  0
   -2.8860    4.1730   -2.9940 H   0  0  0  0  0
   -3.8200    3.9290   -1.4990 H   0  0  0  0  0
   -2.5420    5.1660   -1.5580 H   0  0  0  0  0
   -2.0930    3.5130    0.5250 H   0  0  0  0  0
    0.1840    1.9360   -0.3950 H   0  0  0  0  0
   -3.0760    1.6290    0.4990 H   0  0  0  0  0
    0.6150    3.2420    1.5240 H   0  0  0  0  0
   -0.8960    2.7380    2.3090 H   0  0  0  0  0
    1.2770    1.6520    3.1590 H   0  0  0  0  0
   -0.0640    0.5550    2.7550 H   0  0  0  0  0
    3.3420    1.4430    2.0710 H   0  0  0  0  0
    0.2850   -0.4240   -2.5970 H   0  0  0  0  0
    1.8520   -1.0120   -3.2020 H   0  0  0  0  0
    0.4130   -2.0550   -3.2960 H   0  0  0  0  0
    5.0250   -3.1180   -1.8250 H   0  0  0  0  0
    5.1500   -2.5420   -0.1460 H   0  0  0  0  0
    3.6590   -3.3360   -0.7060 H   0  0  0  0  0
    5.3170    0.8630    2.4170 H   0  0  0  0  0
    6.6440    1.3060    1.3160 H   0  0  0  0  0
    5.1120    2.2100    1.2720 H   0  0  0  0  0
   -0.1520   -2.5380    0.3160 H   0  0  0  0  0
   -2.2120   -3.4340    0.3190 H   0  0  0  0  0
   -3.7580   -4.1720   -0.5370 H   0  0  0  0  0
   -3.6840   -4.2590    1.2400 H   0  0  0  0  0
   -5.2450   -4.4430    0.4040 H   0  0  0  0  0
  1  2  2  0  0  0
  2  3  1  0  0  0
  2  4  1  0  0  0
  3 30  1  0  0  0
  3 31  1  0  0  0
  3 32  1  0  0  0
  4  5  1  0  0  0
  4 33  1  0  0  0
  5  6  1  0  0  0
  5  8  1  0  0  0
  5 34  1  0  0  0
  6  7  2  0  0  0
  6 22  1  0  0  0
  7 26  1  0  0  0
  7 35  1  0  0  0
  8  9  1  0  0  0
  8 36  1  0  0  0
  8 37  1  0  0  0
  9 10  1  0  0  0
  9 38  1  0  0  0
  9 39  1  0  0  0
 10 11  2  0  0  0
 10 21  1  0  0  0
 11 12  1  0  0  0
 11 40  1  0  0  0
 12 13  2  0  0  0
 12 19  1  0  0  0
 13 14  1  0  0  0
 13 17  1  0  0  0
 14 15  1  0  0  0
 14 21  2  0  0  0
 15 16  1  0  0  0
 16 41  1  0  0  0
 16 42  1  0  0  0
 16 43  1  0  0  0
 17 18  1  0  0  0
 18 44  1  0  0  0
 18 45  1  0  0  0
 18 46  1  0  0  0
 19 20  1  0  0  0
 20 47  1  0  0  0
 20 48  1  0  0  0
 20 49  1  0  0  0
 21 22  1  0  0  0
 22 23  2  0  0  0
 23 24  1  0  0  0
 23 50  1  0  0  0
 24 25  2  0  0  0
 24 51  1  0  0  0
 25 26  1  0  0  0
 25 28  1  0  0  0
 26 27  2  0  0  0
 28 29  1  0  0  0
 29 52  1  0  0  0
 29 53  1  0  0  0
 29 54  1  0  0  0
M  END
$$$$
