LPH
  CCTOOLS-1004241128

 15 14  0  0  1  0  0  0  0  0999 V2000
   -3.3880    0.2800   -0.1310 C   0  0  0  0  0
   -2.2670    0.4000    0.1970 C   0  0  0  0  0
   -0.8620    0.5500    0.6090 C   0  0  0  0  0
    0.0450   -0.1530   -0.4030 C   0  0  0  0  0
   -0.2160   -1.5990   -0.3720 N   0  0  0  0  0
    1.4870    0.1040   -0.0500 C   0  0  0  0  0
    2.0640    1.2670   -0.3910 O   0  0  0  0  0
    2.1240   -0.7360    0.5410 O   0  0  0  0  0
   -4.3900    0.1720   -0.4250 H   0  0  0  0  0
   -0.6070    1.6090    0.6510 H   0  0  0  0  0
   -0.7220    0.1040    1.5940 H   0  0  0  0  0
   -0.1590    0.2320   -1.4020 H   0  0  0  0  0
   -0.0350   -1.9800    0.5440 H   0  0  0  0  0
   -1.1600   -1.8020   -0.6680 H   0  0  0  0  0
    2.9910    1.3860   -0.1430 H   0  0  0  0  0
  1  2  3  0  0  0
  1  9  1  0  0  0
  2  3  1  0  0  0
  3 10  1  0  0  0
  3 11  1  0  0  0
  4  6  1  0  0  0
  4  3  1  0  0  0
  4 12  1  0  0  0
  5  4  1  0  0  0
  5 13  1  0  0  0
  5 14  1  0  0  0
  6  7  1  0  0  0
  7 15  1  0  0  0
  8  6  2  0  0  0
M  END
$$$$
