LRG
  CCTOOLS-0919241031

 42 44  0  0  1  0  0  0  0  0999 V2000
   -3.7680   -1.4860    0.9460 C   0  0  0  0  0
   -3.9360   -2.8430    0.7490 C   0  0  0  0  0
   -4.1980   -3.3300   -0.5180 C   0  0  0  0  0
   -4.2910   -2.4590   -1.5880 C   0  0  0  0  0
   -4.1230   -1.1020   -1.3900 C   0  0  0  0  0
   -3.8610   -0.6150   -0.1230 C   0  0  0  0  0
   -3.6840    0.8660    0.0930 C   0  0  0  0  0
   -2.2070    1.2320   -0.0670 C   0  0  0  0  0
   -2.0460    2.7270    0.0270 C   0  0  0  0  0
   -2.5930    3.5210   -0.9070 O   0  0  0  0  0
   -1.4260    3.2110    0.9440 O   0  0  0  0  0
   -1.4460    0.6040    0.9670 O   0  0  0  0  0
   -0.1290    0.3840    0.7160 C   0  0  0  0  0
    0.6420   -0.3200    1.6310 C   0  0  0  0  0
    1.9790   -0.5450    1.3790 C   0  0  0  0  0
    0.4420    0.8590   -0.4570 C   0  0  0  0  0
    1.7790    0.6370   -0.7140 C   0  0  0  0  0
    2.5570   -0.0650    0.2050 C   0  0  0  0  0
    3.9950   -0.3050   -0.0680 C   0  0  0  0  0
    4.5740    0.1760   -1.2410 C   0  0  0  0  0
    5.9130   -0.0460   -1.4880 C   0  0  0  0  0
    6.6810   -0.7430   -0.5730 C   0  0  0  0  0
    6.1120   -1.2220    0.5930 C   0  0  0  0  0
    4.7740   -1.0070    0.8500 C   0  0  0  0  0
   -3.5680   -1.1050    1.9370 H   0  0  0  0  0
   -3.8640   -3.5240    1.5840 H   0  0  0  0  0
   -4.3280   -4.3910   -0.6730 H   0  0  0  0  0
   -4.4940   -2.8400   -2.5780 H   0  0  0  0  0
   -4.1960   -0.4210   -2.2260 H   0  0  0  0  0
   -4.2760    1.4140   -0.6400 H   0  0  0  0  0
   -4.0160    1.1290    1.0980 H   0  0  0  0  0
   -1.8510    0.8890   -1.0390 H   0  0  0  0  0
    0.1940   -0.6920    2.5410 H   0  0  0  0  0
    2.5790   -1.0930    2.0910 H   0  0  0  0  0
   -0.1610    1.4030   -1.1690 H   0  0  0  0  0
    2.2220    1.0070   -1.6270 H   0  0  0  0  0
    3.9740    0.7200   -1.9570 H   0  0  0  0  0
    6.3630    0.3260   -2.3970 H   0  0  0  0  0
    7.7300   -0.9140   -0.7700 H   0  0  0  0  0
    6.7170   -1.7670    1.3030 H   0  0  0  0  0
    4.3320   -1.3770    1.7630 H   0  0  0  0  0
   -2.4630    4.4740   -0.8040 H   0  0  0  0  0
  1  6  1  0  0  0
  1 25  1  0  0  0
  2  1  2  0  0  0
  2 26  1  0  0  0
  3  4  2  0  0  0
  3  2  1  0  0  0
  3 27  1  0  0  0
  4  5  1  0  0  0
  4 28  1  0  0  0
  5  6  2  0  0  0
  5 29  1  0  0  0
  6  7  1  0  0  0
  7  8  1  0  0  0
  7 30  1  0  0  0
  7 31  1  0  0  0
  8  9  1  0  0  0
  8 32  1  0  0  0
  9 11  2  0  0  0
  9 10  1  0  0  0
 10 42  1  0  0  0
 12 13  1  0  0  0
 12  8  1  0  0  0
 13 14  2  0  0  0
 14 33  1  0  0  0
 15 14  1  0  0  0
 15 34  1  0  0  0
 16 13  1  0  0  0
 16 35  1  0  0  0
 17 16  2  0  0  0
 17 18  1  0  0  0
 17 36  1  0  0  0
 18 15  2  0  0  0
 19 24  1  0  0  0
 19 18  1  0  0  0
 20 19  2  0  0  0
 20 37  1  0  0  0
 21 22  2  0  0  0
 21 20  1  0  0  0
 21 38  1  0  0  0
 22 23  1  0  0  0
 22 39  1  0  0  0
 23 24  2  0  0  0
 23 40  1  0  0  0
 24 41  1  0  0  0
M  END
$$$$
