LUM
  CCTOOLS-0919241031

 28 30  0  0  0  0  0  0  0  0999 V2000
    1.4580   -0.0000   -2.4370 N   0  0  0  0  0
    0.7800   -0.0000   -3.5950 C   0  0  0  0  0
    0.7930    0.0000   -1.2220 C   0  0  0  0  0
    1.4080   -0.0010   -4.6360 O   0  0  0  0  0
   -0.5590   -0.0000   -3.6570 N   0  0  0  0  0
   -1.3130    0.0000   -2.5370 C   0  0  0  0  0
   -2.5270    0.0010   -2.6030 O   0  0  0  0  0
   -0.6230    0.0000   -1.2260 C   0  0  0  0  0
   -1.3110    0.0010   -0.1010 N   0  0  0  0  0
   -0.6630    0.0010    1.0620 C   0  0  0  0  0
   -1.3480    0.0010    2.2910 C   0  0  0  0  0
    0.8010    0.0010    1.0710 C   0  0  0  0  0
   -0.6400   -0.0030    3.4530 C   0  0  0  0  0
   -1.3820   -0.0030    4.7650 C   0  0  0  0  0
    0.7510    0.0010    3.4600 C   0  0  0  0  0
    1.4790    0.0000    4.7790 C   0  0  0  0  0
    1.4720    0.0010    2.3050 C   0  0  0  0  0
    1.4660    0.0000   -0.0880 N   0  0  0  0  0
    2.4280   -0.0000   -2.4510 H   0  0  0  0  0
   -0.9950   -0.0000   -4.5240 H   0  0  0  0  0
   -2.4280    0.0030    2.3120 H   0  0  0  0  0
   -1.5650   -1.0310    5.0790 H   0  0  0  0  0
   -0.7830    0.5050    5.5200 H   0  0  0  0  0
   -2.3330    0.5140    4.6450 H   0  0  0  0  0
    1.6550    1.0280    5.0980 H   0  0  0  0  0
    0.8750   -0.5120    5.5270 H   0  0  0  0  0
    2.4340   -0.5130    4.6680 H   0  0  0  0  0
    2.5510    0.0010    2.3380 H   0  0  0  0  0
  1  2  1  0  0  0
  1  3  1  0  0  0
  1 19  1  0  0  0
  2  4  2  0  0  0
  2  5  1  0  0  0
  3  8  2  0  0  0
  3 18  1  0  0  0
  5  6  1  0  0  0
  5 20  1  0  0  0
  6  7  2  0  0  0
  6  8  1  0  0  0
  8  9  1  0  0  0
  9 10  2  0  0  0
 10 11  1  0  0  0
 10 12  1  0  0  0
 11 13  2  0  0  0
 11 21  1  0  0  0
 12 17  1  0  0  0
 12 18  2  0  0  0
 13 14  1  0  0  0
 13 15  1  0  0  0
 14 22  1  0  0  0
 14 23  1  0  0  0
 14 24  1  0  0  0
 15 16  1  0  0  0
 15 17  2  0  0  0
 16 25  1  0  0  0
 16 26  1  0  0  0
 16 27  1  0  0  0
 17 28  1  0  0  0
M  END
$$$$
