LUV
  CCTOOLS-0919241031

 73 77  0  0  1  0  0  0  0  0999 V2000
    9.5260   -1.1960    2.7500 O   0  0  0  0  0
    9.5010   -0.5020    1.7520 C   0  0  0  0  0
   10.3940   -0.6170    0.7590 N   0  0  0  0  0
   10.0780    0.3660   -0.2880 C   0  0  0  0  0
    8.5750    0.4430    1.5410 N   0  0  0  0  0
    8.8370    1.0920    0.2470 C   0  0  0  0  0
    7.6090    0.9080   -0.6650 C   0  0  0  0  0
    7.9850   -0.6680   -1.5360 S   0  0  0  0  0
    9.7990   -0.3740   -1.6110 C   0  0  0  0  0
    6.3310    0.7780    0.1650 C   0  0  0  0  0
    5.1200    0.7220   -0.7680 C   0  0  0  0  0
    3.8420    0.5910    0.0620 C   0  0  0  0  0
    2.6310    0.5350   -0.8720 C   0  0  0  0  0
    1.3710    0.4070   -0.0540 C   0  0  0  0  0
    1.4360    0.3640    1.1570 O   0  0  0  0  0
    0.1730    0.3400   -0.6670 N   0  0  0  0  0
   -1.0510    0.2150    0.1280 C   0  0  0  0  0
   -2.2620    0.1590   -0.8050 C   0  0  0  0  0
   -3.4860    0.0340   -0.0100 N   0  0  0  0  0
   -4.6840   -0.0340   -0.6240 C   0  0  0  0  0
   -4.7490    0.0090   -1.8370 O   0  0  0  0  0
   -5.9160   -0.1590    0.1760 C   0  0  0  0  0
   -6.4150   -1.4290    0.5130 C   0  0  0  0  0
   -5.7060   -2.6510    0.0660 C   0  0  0  0  0
   -5.4020   -3.6580    0.9810 C   0  0  0  0  0
   -4.7410   -4.7940    0.5590 C   0  0  0  0  0
   -4.3790   -4.9330   -0.7690 C   0  0  0  0  0
   -4.6770   -3.9370   -1.6810 C   0  0  0  0  0
   -5.3440   -2.8000   -1.2720 C   0  0  0  0  0
   -7.5790   -1.5340    1.2690 C   0  0  0  0  0
   -8.2430   -0.3970    1.6880 C   0  0  0  0  0
   -7.7620    0.8580    1.3630 C   0  0  0  0  0
   -6.5970    0.9900    0.6130 C   0  0  0  0  0
   -6.0810    2.3360    0.2720 C   0  0  0  0  0
   -6.9310    3.2930   -0.2820 C   0  0  0  0  0
   -6.4440    4.5450   -0.5970 C   0  0  0  0  0
   -5.1150    4.8520   -0.3650 C   0  0  0  0  0
   -4.2670    3.9070    0.1840 C   0  0  0  0  0
   -4.7440    2.6540    0.5090 C   0  0  0  0  0
   11.1320   -1.2470    0.7360 H   0  0  0  0  0
    7.8500    0.6650    2.1460 H   0  0  0  0  0
   10.9030    1.0680   -0.4090 H   0  0  0  0  0
    9.0520    2.1510    0.3890 H   0  0  0  0  0
   10.0540    0.2530   -2.4660 H   0  0  0  0  0
   10.3420   -1.3180   -1.6480 H   0  0  0  0  0
    7.5280    1.7320   -1.3750 H   0  0  0  0  0
    6.3750   -0.1350    0.7580 H   0  0  0  0  0
    6.2390    1.6380    0.8280 H   0  0  0  0  0
    5.0760    1.6350   -1.3620 H   0  0  0  0  0
    5.2120   -0.1380   -1.4320 H   0  0  0  0  0
    3.8850   -0.3220    0.6550 H   0  0  0  0  0
    3.7500    1.4520    0.7250 H   0  0  0  0  0
    2.5870    1.4490   -1.4650 H   0  0  0  0  0
    2.7230   -0.3250   -1.5350 H   0  0  0  0  0
    0.1220    0.3740   -1.6350 H   0  0  0  0  0
   -1.0070   -0.6980    0.7210 H   0  0  0  0  0
   -1.1430    1.0750    0.7910 H   0  0  0  0  0
   -2.3060    1.0720   -1.3990 H   0  0  0  0  0
   -2.1700   -0.7010   -1.4690 H   0  0  0  0  0
   -3.4340   -0.0000    0.9580 H   0  0  0  0  0
   -7.9650   -2.5090    1.5300 H   0  0  0  0  0
   -5.6840   -3.5500    2.0180 H   0  0  0  0  0
   -5.5800   -2.0250   -1.9860 H   0  0  0  0  0
   -4.5060   -5.5750    1.2670 H   0  0  0  0  0
   -3.8620   -5.8240   -1.0940 H   0  0  0  0  0
   -4.3910   -4.0510   -2.7160 H   0  0  0  0  0
   -9.1460   -0.4890    2.2730 H   0  0  0  0  0
   -8.2910    1.7390    1.6960 H   0  0  0  0  0
   -7.9680    3.0540   -0.4630 H   0  0  0  0  0
   -4.0810    1.9180    0.9420 H   0  0  0  0  0
   -7.1010    5.2860   -1.0260 H   0  0  0  0  0
   -4.7380    5.8330   -0.6140 H   0  0  0  0  0
   -3.2300    4.1520    0.3620 H   0  0  0  0  0
  1  2  2  0  0  0
  2  3  1  0  0  0
  2  5  1  0  0  0
  3  4  1  0  0  0
  3 40  1  0  0  0
  4  6  1  0  0  0
  4  9  1  0  0  0
  4 42  1  0  0  0
  5  6  1  0  0  0
  5 41  1  0  0  0
  6  7  1  0  0  0
  6 43  1  0  0  0
  7  8  1  0  0  0
  7 10  1  0  0  0
  7 46  1  0  0  0
  8  9  1  0  0  0
  9 44  1  0  0  0
  9 45  1  0  0  0
 10 11  1  0  0  0
 10 47  1  0  0  0
 10 48  1  0  0  0
 11 12  1  0  0  0
 11 49  1  0  0  0
 11 50  1  0  0  0
 12 13  1  0  0  0
 12 51  1  0  0  0
 12 52  1  0  0  0
 13 14  1  0  0  0
 13 53  1  0  0  0
 13 54  1  0  0  0
 14 15  2  0  0  0
 14 16  1  0  0  0
 16 17  1  0  0  0
 16 55  1  0  0  0
 17 18  1  0  0  0
 17 56  1  0  0  0
 17 57  1  0  0  0
 18 19  1  0  0  0
 18 58  1  0  0  0
 18 59  1  0  0  0
 19 20  1  0  0  0
 19 60  1  0  0  0
 20 21  2  0  0  0
 20 22  1  0  0  0
 22 23  1  0  0  0
 22 33  2  0  0  0
 23 24  1  0  0  0
 23 30  2  0  0  0
 24 25  1  0  0  0
 24 29  2  0  0  0
 25 26  2  0  0  0
 25 62  1  0  0  0
 26 27  1  0  0  0
 26 64  1  0  0  0
 27 28  2  0  0  0
 27 65  1  0  0  0
 28 29  1  0  0  0
 28 66  1  0  0  0
 29 63  1  0  0  0
 30 31  1  0  0  0
 30 61  1  0  0  0
 31 32  2  0  0  0
 31 67  1  0  0  0
 32 33  1  0  0  0
 32 68  1  0  0  0
 33 34  1  0  0  0
 34 35  1  0  0  0
 34 39  2  0  0  0
 35 36  2  0  0  0
 35 69  1  0  0  0
 36 37  1  0  0  0
 36 71  1  0  0  0
 37 38  2  0  0  0
 37 72  1  0  0  0
 38 39  1  0  0  0
 38 73  1  0  0  0
 39 70  1  0  0  0
M  END
$$$$
