LXB
  CCTOOLS-1004241129

 30 30  0  0  1  0  0  0  0  0999 V2000
   -0.8910   -2.0480   -0.2440 O   0  0  0  0  0
   -0.1360   -0.8670   -0.5200 C   0  0  0  0  0
   -0.7740    0.3270    0.1960 C   0  0  0  0  0
    0.0750    1.5770   -0.0560 C   0  0  0  0  0
    1.5070    1.3120    0.4190 C   0  0  0  0  0
    2.0570    0.0800   -0.3060 C   0  0  0  0  0
    3.4660   -0.2260    0.2070 C   0  0  0  0  0
   -3.1630   -0.1530    0.1890 C   0  0  0  0  0
   -4.5550    0.0680   -0.3430 C   0  0  0  0  0
   -2.1270    0.5420   -0.3220 N   0  0  0  0  0
    0.0820    1.8760   -1.4530 O   0  0  0  0  0
    1.5070    1.0780    1.8280 O   0  0  0  0  0
    1.2040   -1.0380   -0.0550 O   0  0  0  0  0
    4.0240   -1.3030   -0.5500 O   0  0  0  0  0
   -2.9740   -0.9560    1.0780 O   0  0  0  0  0
   -0.5440   -2.8450   -0.6670 H   0  0  0  0  0
   -0.1270   -0.6840   -1.5950 H   0  0  0  0  0
   -0.8210    0.1270    1.2660 H   0  0  0  0  0
   -0.3430    2.4190    0.4950 H   0  0  0  0  0
    2.1310    2.1760    0.1930 H   0  0  0  0  0
    2.0950    0.2760   -1.3780 H   0  0  0  0  0
    4.0930    0.6580    0.0970 H   0  0  0  0  0
    3.4160   -0.5090    1.2580 H   0  0  0  0  0
   -5.2540   -0.5770    0.1880 H   0  0  0  0  0
   -4.8390    1.1100   -0.1970 H   0  0  0  0  0
   -4.5790   -0.1680   -1.4070 H   0  0  0  0  0
   -2.2780    1.1840   -1.0330 H   0  0  0  0  0
    0.6020    2.6580   -1.6850 H   0  0  0  0  0
    2.3840    0.9020    2.1980 H   0  0  0  0  0
    4.9180   -1.5510   -0.2790 H   0  0  0  0  0
  1 16  1  0  0  0
  2  1  1  0  0  0
  2  3  1  0  0  0
  2 17  1  0  0  0
  3 10  1  0  0  0
  3 18  1  0  0  0
  4  3  1  0  0  0
  4 11  1  0  0  0
  4 19  1  0  0  0
  5  4  1  0  0  0
  5 20  1  0  0  0
  6  5  1  0  0  0
  6 13  1  0  0  0
  6 21  1  0  0  0
  7  6  1  0  0  0
  7 14  1  0  0  0
  7 22  1  0  0  0
  7 23  1  0  0  0
  8 15  2  0  0  0
  8  9  1  0  0  0
  9 24  1  0  0  0
  9 25  1  0  0  0
  9 26  1  0  0  0
 10  8  1  0  0  0
 10 27  1  0  0  0
 11 28  1  0  0  0
 12  5  1  0  0  0
 12 29  1  0  0  0
 13  2  1  0  0  0
 14 30  1  0  0  0
M  END
$$$$
