LXZ
  CCTOOLS-1004241129

 30 30  0  0  1  0  0  0  0  0999 V2000
    1.0130    2.2330   -0.9850 O   0  0  0  0  0
    0.3270    1.0080   -1.2560 C   0  0  0  0  0
   -0.8530    0.8600   -0.2920 C   0  0  0  0  0
   -0.3230    0.7890    1.1440 C   0  0  0  0  0
    0.6680   -0.3750    1.2540 C   0  0  0  0  0
    1.7890   -0.1780    0.2290 C   0  0  0  0  0
    2.7510   -1.3670    0.2920 C   0  0  0  0  0
   -2.8930   -0.4720   -0.2820 C   0  0  0  0  0
   -3.6490   -1.7350   -0.6030 C   0  0  0  0  0
   -1.5880   -0.3680   -0.6030 N   0  0  0  0  0
    0.3390    2.0120    1.4700 O   0  0  0  0  0
   -0.0090   -1.6050    0.9900 O   0  0  0  0  0
    1.2250   -0.0890   -1.0810 O   0  0  0  0  0
    3.8580   -1.1290   -0.5800 O   0  0  0  0  0
   -3.4580    0.4510    0.2650 O   0  0  0  0  0
    1.7740    2.3930   -1.5600 H   0  0  0  0  0
   -0.0410    1.0170   -2.2820 H   0  0  0  0  0
   -1.5160    1.7190   -0.3930 H   0  0  0  0  0
   -1.1530    0.6270    1.8310 H   0  0  0  0  0
    1.0910   -0.3990    2.2580 H   0  0  0  0  0
    2.3310    0.7400    0.4550 H   0  0  0  0  0
    3.1120   -1.4890    1.3130 H   0  0  0  0  0
    2.2300   -2.2720   -0.0210 H   0  0  0  0  0
   -4.6830   -1.6340   -0.2710 H   0  0  0  0  0
   -3.6280   -1.9080   -1.6790 H   0  0  0  0  0
   -3.1840   -2.5780   -0.0910 H   0  0  0  0  0
   -1.1360   -1.1070   -1.0410 H   0  0  0  0  0
    0.7000    2.0370    2.3670 H   0  0  0  0  0
    0.5590   -2.3860    1.0430 H   0  0  0  0  0
    4.5100   -1.8440   -0.5910 H   0  0  0  0  0
  1  2  1  0  0  0
  1 16  1  0  0  0
  2 13  1  0  0  0
  2 17  1  0  0  0
  3  2  1  0  0  0
  3  4  1  0  0  0
  3 18  1  0  0  0
  4  5  1  0  0  0
  4 19  1  0  0  0
  5 12  1  0  0  0
  5  6  1  0  0  0
  5 20  1  0  0  0
  6  7  1  0  0  0
  6 21  1  0  0  0
  7 14  1  0  0  0
  7 22  1  0  0  0
  7 23  1  0  0  0
  8 15  2  0  0  0
  8 10  1  0  0  0
  9  8  1  0  0  0
  9 24  1  0  0  0
  9 25  1  0  0  0
  9 26  1  0  0  0
 10  3  1  0  0  0
 10 27  1  0  0  0
 11  4  1  0  0  0
 11 28  1  0  0  0
 12 29  1  0  0  0
 13  6  1  0  0  0
 14 30  1  0  0  0
M  END
$$$$
