LY9
  CCTOOLS-0919241032

 20 19  0  0  1  0  0  0  0  0999 V2000
   -3.3090    0.2620   -0.7790 O   0  0  0  0  0
   -1.3630    1.8850   -0.1660 O   0  0  0  0  0
    1.2760    0.8190    1.5710 O   0  0  0  0  0
    2.6970   -0.1860   -1.6390 O   0  0  0  0  0
   -2.6410   -1.4900    0.3900 O   0  0  0  0  0
   -2.4760   -0.2360   -0.0590 C   0  0  0  0  0
   -1.2530    0.5520    0.3360 C   0  0  0  0  0
   -0.0070   -0.1140   -0.2520 C   0  0  0  0  0
    1.2350    0.6860    0.1490 C   0  0  0  0  0
    2.4700   -0.0350   -0.3250 C   0  0  0  0  0
    3.2570   -0.4770    0.4790 O   0  0  0  0  0
    0.1020   -1.4470    0.2500 O   0  0  0  0  0
   -1.4380    1.9380   -1.1290 H   0  0  0  0  0
    1.3150   -0.0230    2.0440 H   0  0  0  0  0
    3.5030   -0.6560   -1.8940 H   0  0  0  0  0
   -3.4410   -1.9550    0.1100 H   0  0  0  0  0
   -1.1730    0.5780    1.4220 H   0  0  0  0  0
   -0.0870   -0.1400   -1.3380 H   0  0  0  0  0
    1.1930    1.6740   -0.3080 H   0  0  0  0  0
    0.1780   -1.5000    1.2130 H   0  0  0  0  0
  2  7  1  0  0  0
  2 13  1  0  0  0
  3  9  1  0  0  0
  3 14  1  0  0  0
  4 15  1  0  0  0
  5 16  1  0  0  0
  6  1  2  0  0  0
  6  5  1  0  0  0
  7  6  1  0  0  0
  7 17  1  0  0  0
  8  7  1  0  0  0
  8 18  1  0  0  0
  9  8  1  0  0  0
  9 19  1  0  0  0
 10  4  1  0  0  0
 10  9  1  0  0  0
 11 10  2  0  0  0
 12  8  1  0  0  0
 12 20  1  0  0  0
M  END
$$$$
