LYA
  CCTOOLS-0919241032

 52 54  0  0  1  0  0  0  0  0999 V2000
   -0.9580    0.9860    0.8610 C   0  0  0  0  0
   -2.1140    1.4050    0.2270 C   0  0  0  0  0
   -2.2700    1.2080   -1.1290 C   0  0  0  0  0
   -1.2580    0.5840   -1.8610 C   0  0  0  0  0
   -0.0950    0.1640   -1.2150 C   0  0  0  0  0
    0.0500    0.3720    0.1410 C   0  0  0  0  0
   -0.7950    1.2040    2.3430 C   0  0  0  0  0
   -1.3460   -0.0040    3.1010 C   0  0  0  0  0
   -1.1830    0.2140    4.5830 C   0  0  0  0  0
   -2.0670    0.7960    5.4130 C   0  0  0  0  0
   -1.5570    0.8090    6.6850 N   0  0  0  0  0
   -0.3280    0.2330    6.7020 C   0  0  0  0  0
   -0.0340   -0.1650    5.4010 C   0  0  0  0  0
    1.2470   -0.8210    5.1420 C   0  0  0  0  0
    1.5450   -1.1870    4.0160 O   0  0  0  0  0
    2.0880   -1.0130    6.1720 N   0  0  0  0  0
    1.7750   -0.6220    7.3890 C   0  0  0  0  0
    0.5980   -0.0140    7.6860 N   0  0  0  0  0
    2.6720   -0.8450    8.3990 N   0  0  0  0  0
   -1.4180    0.3700   -3.3150 C   0  0  0  0  0
   -2.4330    0.7360   -3.8760 O   0  0  0  0  0
   -0.4390   -0.2320   -4.0190 N   0  0  0  0  0
   -0.5980   -0.4440   -5.4600 C   0  0  0  0  0
    0.7740   -0.4160   -6.1340 C   0  0  0  0  0
    1.4350    0.9410   -5.8890 C   0  0  0  0  0
    2.7880    0.9690   -6.5530 C   0  0  0  0  0
    3.1830    0.0010   -7.1600 O   0  0  0  0  0
    3.5540    2.0680   -6.4700 O   0  0  0  0  0
   -1.2490   -1.7820   -5.7020 C   0  0  0  0  0
   -1.9470   -1.9470   -6.6740 O   0  0  0  0  0
   -1.0530   -2.7900   -4.8370 O   0  0  0  0  0
   -2.8960    1.8860    0.7940 H   0  0  0  0  0
   -3.1730    1.5350   -1.6230 H   0  0  0  0  0
    0.6910   -0.3180   -1.7750 H   0  0  0  0  0
    0.9490    0.0470    0.6420 H   0  0  0  0  0
   -1.3420    2.0990    2.6410 H   0  0  0  0  0
    0.2610    1.3300    2.5780 H   0  0  0  0  0
   -0.7990   -0.8990    2.8040 H   0  0  0  0  0
   -2.4030   -0.1290    2.8670 H   0  0  0  0  0
   -3.0280    1.1920    5.1220 H   0  0  0  0  0
   -2.0080    1.1770    7.4610 H   0  0  0  0  0
    0.4110    0.2500    8.6000 H   0  0  0  0  0
    3.5170   -1.2810    8.2100 H   0  0  0  0  0
    2.4630   -0.5620    9.3030 H   0  0  0  0  0
    0.3690   -0.5240   -3.5720 H   0  0  0  0  0
   -1.2240    0.3440   -5.8770 H   0  0  0  0  0
    1.4000   -1.2050   -5.7170 H   0  0  0  0  0
    0.6560   -0.5740   -7.2060 H   0  0  0  0  0
    0.8090    1.7300   -6.3060 H   0  0  0  0  0
    1.5530    1.0990   -4.8170 H   0  0  0  0  0
    4.4220    2.0860   -6.8960 H   0  0  0  0  0
   -1.4710   -3.6480   -4.9920 H   0  0  0  0  0
  1  2  2  0  0  0
  1  6  1  0  0  0
  1  7  1  0  0  0
  2  3  1  0  0  0
  2 32  1  0  0  0
  3  4  2  0  0  0
  3 33  1  0  0  0
  4  5  1  0  0  0
  4 20  1  0  0  0
  5  6  2  0  0  0
  5 34  1  0  0  0
  6 35  1  0  0  0
  7  8  1  0  0  0
  7 36  1  0  0  0
  7 37  1  0  0  0
  8  9  1  0  0  0
  8 38  1  0  0  0
  8 39  1  0  0  0
  9 10  2  0  0  0
  9 13  1  0  0  0
 10 11  1  0  0  0
 10 40  1  0  0  0
 11 12  1  0  0  0
 11 41  1  0  0  0
 12 13  2  0  0  0
 12 18  1  0  0  0
 13 14  1  0  0  0
 14 15  2  0  0  0
 14 16  1  0  0  0
 16 17  2  0  0  0
 17 18  1  0  0  0
 17 19  1  0  0  0
 18 42  1  0  0  0
 19 43  1  0  0  0
 19 44  1  0  0  0
 20 21  2  0  0  0
 20 22  1  0  0  0
 22 23  1  0  0  0
 22 45  1  0  0  0
 23 24  1  0  0  0
 23 29  1  0  0  0
 23 46  1  0  0  0
 24 25  1  0  0  0
 24 47  1  0  0  0
 24 48  1  0  0  0
 25 26  1  0  0  0
 25 49  1  0  0  0
 25 50  1  0  0  0
 26 27  2  0  0  0
 26 28  1  0  0  0
 28 51  1  0  0  0
 29 30  2  0  0  0
 29 31  1  0  0  0
 31 52  1  0  0  0
M  END
$$$$
