LZ0
  CCTOOLS-0919241032

 37 38  0  0  1  0  0  0  0  0999 V2000
   39.1340    4.5420   -3.4770 C   0  0  0  0  0
   37.6970    4.3900   -2.9180 C   0  0  0  0  0
   36.8810    3.3200   -3.6480 C   0  0  0  0  0
   37.7030    2.0390   -3.7810 C   0  0  0  0  0
   39.0820    2.3330   -4.4110 C   0  0  0  0  0
   39.9330    1.0790   -4.5360 C   0  0  0  0  0
   39.0820    5.2310   -4.7390 O   0  0  0  0  0
   36.9710    5.6250   -2.9680 O   0  0  0  0  0
   35.7010    3.0510   -2.8710 O   0  0  0  0  0
   37.8760    1.4480   -2.4840 O   0  0  0  0  0
   39.7920    3.2830   -3.6240 O   0  0  0  0  0
   39.7950    8.7060   -6.3380 O   0  0  0  0  0
   39.3900    9.3530   -5.3730 C   0  0  0  0  0
   39.2450    8.6390   -4.0510 C   0  0  0  0  0
   40.4920    7.9310   -3.7980 N   0  0  0  0  0
   40.9520    6.7520   -4.2030 C   0  0  0  0  0
   40.3490    5.6540   -5.0510 C   0  0  0  0  0
   42.2360    6.5710   -3.6660 C   0  0  0  0  0
   42.5480    7.6830   -2.9220 N   0  0  0  0  0
   41.4560    8.5870   -3.0040 N   0  0  0  0  0
   39.7210    5.1270   -2.7540 H   0  0  0  0  0
   37.8310    4.0770   -1.8720 H   0  0  0  0  0
   36.6100    3.6730   -4.6540 H   0  0  0  0  0
   36.8100    5.9340   -2.0840 H   0  0  0  0  0
   37.1650    1.3410   -4.4400 H   0  0  0  0  0
   35.9330    2.9920   -1.9520 H   0  0  0  0  0
   38.8920    2.7320   -5.4180 H   0  0  0  0  0
   37.9140    0.5030   -2.5690 H   0  0  0  0  0
   40.1390    0.8790   -5.5980 H   0  0  0  0  0
   40.8820    1.2250   -4.0000 H   0  0  0  0  0
   39.3940    0.2250   -4.1000 H   0  0  0  0  0
   41.0090    4.7790   -4.9560 H   0  0  0  0  0
   40.2630    6.0890   -6.0580 H   0  0  0  0  0
   39.0520    9.3650   -3.2470 H   0  0  0  0  0
   38.4000    7.9350   -4.0820 H   0  0  0  0  0
   42.8690    5.7080   -3.8120 H   0  0  0  0  0
   39.1460   10.4010   -5.4690 H   0  0  0  0  0
  1  2  1  0  0  0
  1  7  1  0  0  0
  1 11  1  0  0  0
  1 21  1  0  0  0
  2  3  1  0  0  0
  2  8  1  0  0  0
  2 22  1  0  0  0
  3  4  1  0  0  0
  3  9  1  0  0  0
  3 23  1  0  0  0
  4  5  1  0  0  0
  4 10  1  0  0  0
  4 25  1  0  0  0
  5  6  1  0  0  0
  5 11  1  0  0  0
  5 27  1  0  0  0
  6 29  1  0  0  0
  6 30  1  0  0  0
  6 31  1  0  0  0
  7 17  1  0  0  0
  8 24  1  0  0  0
  9 26  1  0  0  0
 10 28  1  0  0  0
 12 13  2  0  0  0
 13 14  1  0  0  0
 13 37  1  0  0  0
 14 15  1  0  0  0
 14 34  1  0  0  0
 14 35  1  0  0  0
 15 16  1  0  0  0
 15 20  1  0  0  0
 16 17  1  0  0  0
 16 18  2  0  0  0
 17 32  1  0  0  0
 17 33  1  0  0  0
 18 19  1  0  0  0
 18 36  1  0  0  0
 19 20  2  0  0  0
M  END
$$$$
