M12
  CCTOOLS-0516251143

 38 37  0  0  0  0  0  0  0  0999 V2000
   -5.5700   -0.0580   -0.0640 C   0  0  0  0  0
   -5.5230   -1.2140   -0.4120 O   0  0  0  0  0
   -4.2950    0.7010    0.1980 C   0  0  0  0  0
   -3.0950   -0.2150   -0.0490 C   0  0  0  0  0
   -1.8010    0.5560    0.2160 C   0  0  0  0  0
   -0.6010   -0.3610   -0.0310 C   0  0  0  0  0
    0.6940    0.4110    0.2350 C   0  0  0  0  0
    1.8930   -0.5060   -0.0120 C   0  0  0  0  0
    3.1880    0.2660    0.2530 C   0  0  0  0  0
    4.3880   -0.6510    0.0060 C   0  0  0  0  0
    5.6820    0.1200    0.2720 C   0  0  0  0  0
    6.8760   -0.8280    0.1470 C   0  0  0  0  0
    5.8200    1.2520   -0.7490 C   0  0  0  0  0
   -6.7560    0.5510    0.0840 O   0  0  0  0  0
   -4.2400    1.5600   -0.4710 H   0  0  0  0  0
   -4.2820    1.0450    1.2320 H   0  0  0  0  0
   -7.5460    0.0240   -0.0990 H   0  0  0  0  0
   -3.1500   -1.0740    0.6190 H   0  0  0  0  0
   -3.1070   -0.5590   -1.0840 H   0  0  0  0  0
   -1.7460    1.4150   -0.4530 H   0  0  0  0  0
   -1.7880    0.9000    1.2500 H   0  0  0  0  0
   -0.6560   -1.2190    0.6380 H   0  0  0  0  0
   -0.6130   -0.7040   -1.0650 H   0  0  0  0  0
    0.7490    1.2700   -0.4340 H   0  0  0  0  0
    0.7060    0.7550    1.2690 H   0  0  0  0  0
    1.8380   -1.3650    0.6570 H   0  0  0  0  0
    1.8810   -0.8500   -1.0470 H   0  0  0  0  0
    3.2430    1.1240   -0.4160 H   0  0  0  0  0
    3.2000    0.6090    1.2880 H   0  0  0  0  0
    4.3330   -1.5100    0.6750 H   0  0  0  0  0
    4.3750   -0.9950   -1.0280 H   0  0  0  0  0
    5.6550    0.5390    1.2780 H   0  0  0  0  0
    6.9030   -1.2470   -0.8590 H   0  0  0  0  0
    7.7980   -0.2790    0.3360 H   0  0  0  0  0
    6.7780   -1.6340    0.8740 H   0  0  0  0  0
    5.8470    0.8320   -1.7540 H   0  0  0  0  0
    4.9690    1.9280   -0.6590 H   0  0  0  0  0
    6.7420    1.8010   -0.5590 H   0  0  0  0  0
  1  2  2  0  0  0
  1  3  1  0  0  0
  1 14  1  0  0  0
  3  4  1  0  0  0
  3 15  1  0  0  0
  3 16  1  0  0  0
  4  5  1  0  0  0
  4 18  1  0  0  0
  4 19  1  0  0  0
  5  6  1  0  0  0
  5 20  1  0  0  0
  5 21  1  0  0  0
  6  7  1  0  0  0
  6 22  1  0  0  0
  6 23  1  0  0  0
  7  8  1  0  0  0
  7 24  1  0  0  0
  7 25  1  0  0  0
  8  9  1  0  0  0
  8 26  1  0  0  0
  8 27  1  0  0  0
  9 10  1  0  0  0
  9 28  1  0  0  0
  9 29  1  0  0  0
 10 11  1  0  0  0
 10 30  1  0  0  0
 10 31  1  0  0  0
 11 12  1  0  0  0
 11 13  1  0  0  0
 11 32  1  0  0  0
 12 33  1  0  0  0
 12 34  1  0  0  0
 12 35  1  0  0  0
 13 36  1  0  0  0
 13 37  1  0  0  0
 13 38  1  0  0  0
 14 17  1  0  0  0
M  END
$$$$
