M2G
  CCTOOLS-0919241033

 44 46  0  0  1  0  0  0  0  0999 V2000
   -0.7000    0.5100   -5.4780 P   0  0  0  0  0
   -1.5530   -0.6970   -5.4190 O   0  0  0  0  0
   -1.5540    1.7420   -6.0660 O   0  0  0  0  0
    0.5630    0.2280   -6.4360 O   0  0  0  0  0
   -0.1810    0.8740   -3.9990 O   0  0  0  0  0
    0.5650   -0.2510   -3.5340 C   0  0  0  0  0
    1.0890    0.0300   -2.1240 C   0  0  0  0  0
   -0.0090    0.2390   -1.2110 O   0  0  0  0  0
    1.8350   -1.2020   -1.5690 C   0  0  0  0  0
    3.2460   -1.0520   -1.7360 O   0  0  0  0  0
    1.4650   -1.2200   -0.0670 C   0  0  0  0  0
    2.6370   -1.0840    0.7380 O   0  0  0  0  0
    0.5380    0.0020    0.1030 C   0  0  0  0  0
   -0.5340   -0.2980    1.0550 N   0  0  0  0  0
   -1.7440   -0.8550    0.7580 C   0  0  0  0  0
   -2.4500   -0.9800    1.8430 N   0  0  0  0  0
   -1.7380   -0.5140    2.8980 C   0  0  0  0  0
   -1.9910   -0.4020    4.2850 C   0  0  0  0  0
   -3.0510   -0.7740    4.7590 O   0  0  0  0  0
   -1.0260    0.1210    5.0730 N   0  0  0  0  0
    0.1520    0.5380    4.5320 C   0  0  0  0  0
    1.1110    1.0720    5.3560 N   0  0  0  0  0
    0.4000    0.4390    3.2450 N   0  0  0  0  0
   -0.5050   -0.0730    2.4040 C   0  0  0  0  0
    2.3890    1.5210    4.7980 C   0  0  0  0  0
    0.8580    1.1920    6.7940 C   0  0  0  0  0
   -1.8450    1.4830   -6.9510 H   0  0  0  0  0
    1.0910    1.0370   -6.4470 H   0  0  0  0  0
    1.4050   -0.4320   -4.2050 H   0  0  0  0  0
   -0.0780   -1.1300   -3.5130 H   0  0  0  0  0
    1.7470    0.8990   -2.1320 H   0  0  0  0  0
    1.4880   -2.1120   -2.0590 H   0  0  0  0  0
    3.6570   -1.8480   -1.3720 H   0  0  0  0  0
    0.9340   -2.1380    0.1840 H   0  0  0  0  0
    3.2010   -1.8440    0.5420 H   0  0  0  0  0
    1.1090    0.8680    0.4380 H   0  0  0  0  0
   -2.0670   -1.1460   -0.2300 H   0  0  0  0  0
   -1.1770    0.2080    6.0280 H   0  0  0  0  0
    3.0180    1.9120    5.5980 H   0  0  0  0  0
    2.8910    0.6820    4.3180 H   0  0  0  0  0
    2.2080    2.3050    4.0620 H   0  0  0  0  0
    1.7270    1.6340    7.2810 H   0  0  0  0  0
   -0.0120    1.8270    6.9580 H   0  0  0  0  0
    0.6700    0.2030    7.2140 H   0  0  0  0  0
  1  2  2  0  0  0
  1  3  1  0  0  0
  1  4  1  0  0  0
  1  5  1  0  0  0
  3 27  1  0  0  0
  4 28  1  0  0  0
  5  6  1  0  0  0
  6  7  1  0  0  0
  6 29  1  0  0  0
  6 30  1  0  0  0
  7  8  1  0  0  0
  7  9  1  0  0  0
  7 31  1  0  0  0
  8 13  1  0  0  0
  9 10  1  0  0  0
  9 11  1  0  0  0
  9 32  1  0  0  0
 10 33  1  0  0  0
 11 12  1  0  0  0
 11 13  1  0  0  0
 11 34  1  0  0  0
 12 35  1  0  0  0
 13 14  1  0  0  0
 13 36  1  0  0  0
 14 15  1  0  0  0
 14 24  1  0  0  0
 15 16  2  0  0  0
 15 37  1  0  0  0
 16 17  1  0  0  0
 17 18  1  0  0  0
 17 24  2  0  0  0
 18 19  2  0  0  0
 18 20  1  0  0  0
 20 21  1  0  0  0
 20 38  1  0  0  0
 21 22  1  0  0  0
 21 23  2  0  0  0
 22 25  1  0  0  0
 22 26  1  0  0  0
 23 24  1  0  0  0
 25 39  1  0  0  0
 25 40  1  0  0  0
 25 41  1  0  0  0
 26 42  1  0  0  0
 26 43  1  0  0  0
 26 44  1  0  0  0
M  END
$$$$
