M3R
  CCTOOLS-0919241033

 33 32  0  0  1  0  0  0  0  0999 V2000
    2.9330    2.6710   -1.1490 C   0  0  0  0  0
    2.4950    1.3450    0.0230 P   0  0  0  0  0
    1.7190    1.9770    1.2840 O   0  0  0  0  0
    3.7280    0.6720    0.4900 O   0  0  0  0  0
    1.5000    0.2250   -0.7440 N   0  0  0  0  0
    1.1260   -0.8610    0.1720 C   0  0  0  0  0
    2.0720   -2.0200   -0.0100 C   0  0  0  0  0
    1.9210   -3.1320    0.7280 O   0  0  0  0  0
   -0.3030   -1.3160   -0.1320 C   0  0  0  0  0
   -1.2760   -0.1760    0.1730 C   0  0  0  0  0
   -2.7050   -0.6310   -0.1320 C   0  0  0  0  0
   -3.6380    0.4610    0.1600 N   0  0  0  0  0
   -4.9870    0.2840   -0.0380 C   0  0  0  0  0
   -5.4360   -0.8550   -0.4860 N   0  0  0  0  0
   -5.8620    1.3090    0.2350 N   0  0  0  0  0
    2.9660   -1.9490   -0.8200 O   0  0  0  0  0
    3.5770    3.3960   -0.6520 H   0  0  0  0  0
    3.4580    2.2430   -2.0020 H   0  0  0  0  0
    2.0250    3.1670   -1.4920 H   0  0  0  0  0
    0.8990    2.4350    1.0520 H   0  0  0  0  0
    0.6810    0.6720   -1.1280 H   0  0  0  0  0
    1.1830   -0.5040    1.2010 H   0  0  0  0  0
    2.5520   -3.8490    0.5750 H   0  0  0  0  0
   -0.3800   -1.5890   -1.1840 H   0  0  0  0  0
   -0.5490   -2.1790    0.4870 H   0  0  0  0  0
   -1.1980    0.0970    1.2250 H   0  0  0  0  0
   -1.0300    0.6870   -0.4460 H   0  0  0  0  0
   -2.7830   -0.9040   -1.1840 H   0  0  0  0  0
   -2.9510   -1.4940    0.4870 H   0  0  0  0  0
   -3.3030    1.3090    0.4930 H   0  0  0  0  0
   -6.3880   -0.9790   -0.6260 H   0  0  0  0  0
   -5.5270    2.1560    0.5680 H   0  0  0  0  0
   -6.8130    1.1840    0.0960 H   0  0  0  0  0
  1 17  1  0  0  0
  1 18  1  0  0  0
  1 19  1  0  0  0
  2  1  1  0  0  0
  2  3  1  0  0  0
  3 20  1  0  0  0
  4  2  2  0  0  0
  5  2  1  0  0  0
  5 21  1  0  0  0
  6  5  1  0  0  0
  6  9  1  0  0  0
  6 22  1  0  0  0
  7  6  1  0  0  0
  8  7  1  0  0  0
  8 23  1  0  0  0
  9 10  1  0  0  0
  9 24  1  0  0  0
  9 25  1  0  0  0
 10 26  1  0  0  0
 10 27  1  0  0  0
 11 10  1  0  0  0
 11 28  1  0  0  0
 11 29  1  0  0  0
 12 11  1  0  0  0
 12 13  1  0  0  0
 12 30  1  0  0  0
 13 15  1  0  0  0
 14 13  2  0  0  0
 14 31  1  0  0  0
 15 32  1  0  0  0
 15 33  1  0  0  0
 16  7  2  0  0  0
M  END
$$$$
