M49
  CCTOOLS-0919241033

 37 38  0  0  1  0  0  0  0  0999 V2000
    3.2670    1.9980    1.1670 O   0  0  0  0  0
    4.1080    1.9130    0.2960 C   0  0  0  0  0
    5.2240    2.9220    0.2250 C   0  0  0  0  0
    4.0460    0.9110   -0.6030 N   0  0  0  0  0
    3.0690   -0.0860   -0.4760 C   0  0  0  0  0
    1.8070    0.2320    0.0100 C   0  0  0  0  0
    0.8520   -0.7520    0.1320 C   0  0  0  0  0
    3.3570   -1.3950   -0.8410 C   0  0  0  0  0
    2.3980   -2.3770   -0.7170 C   0  0  0  0  0
    1.1320   -2.0650   -0.2250 C   0  0  0  0  0
    0.0120   -2.8720   -0.0120 N   0  0  0  0  0
   -1.0280   -2.1780    0.4820 C   0  0  0  0  0
   -2.1220   -2.6210    0.7620 O   0  0  0  0  0
   -0.5800   -0.7380    0.6140 C   0  0  0  0  0
   -1.4330    0.1770   -0.2670 C   0  0  0  0  0
   -2.8460    0.2720    0.3140 C   0  0  0  0  0
   -3.6630    1.1480   -0.5300 N   0  0  0  0  0
   -4.9510    1.3820   -0.2100 C   0  0  0  0  0
   -5.4340    0.8660    0.7750 O   0  0  0  0  0
   -5.7910    2.2830   -1.0780 C   0  0  0  0  0
    6.0680    2.5730    0.8210 H   0  0  0  0  0
    5.5370    3.0440   -0.8120 H   0  0  0  0  0
    4.8750    3.8780    0.6140 H   0  0  0  0  0
    4.6770    0.8800   -1.3390 H   0  0  0  0  0
    1.5760    1.2490    0.2920 H   0  0  0  0  0
    4.3360   -1.6430   -1.2230 H   0  0  0  0  0
    2.6280   -3.3930   -1.0030 H   0  0  0  0  0
   -0.0130   -3.8230   -0.1980 H   0  0  0  0  0
   -0.6290   -0.4210    1.6560 H   0  0  0  0  0
   -0.9860    1.1710   -0.2990 H   0  0  0  0  0
   -1.4820   -0.2320   -1.2760 H   0  0  0  0  0
   -3.2930   -0.7210    0.3460 H   0  0  0  0  0
   -2.7970    0.6810    1.3230 H   0  0  0  0  0
   -3.2760    1.5610   -1.3180 H   0  0  0  0  0
   -6.2800    1.6900   -1.8510 H   0  0  0  0  0
   -6.5470    2.7750   -0.4650 H   0  0  0  0  0
   -5.1550    3.0350   -1.5440 H   0  0  0  0  0
  1  2  2  0  0  0
  2  3  1  0  0  0
  3 21  1  0  0  0
  3 22  1  0  0  0
  3 23  1  0  0  0
  4  2  1  0  0  0
  4 24  1  0  0  0
  5  4  1  0  0  0
  5  6  2  0  0  0
  6 25  1  0  0  0
  7  6  1  0  0  0
  7 14  1  0  0  0
  8  5  1  0  0  0
  8 26  1  0  0  0
  9  8  2  0  0  0
  9 10  1  0  0  0
  9 27  1  0  0  0
 10 11  1  0  0  0
 10  7  2  0  0  0
 11 12  1  0  0  0
 11 28  1  0  0  0
 12 13  2  0  0  0
 12 14  1  0  0  0
 14 29  1  0  0  0
 15 14  1  0  0  0
 15 16  1  0  0  0
 15 30  1  0  0  0
 15 31  1  0  0  0
 16 17  1  0  0  0
 16 32  1  0  0  0
 16 33  1  0  0  0
 17 18  1  0  0  0
 17 34  1  0  0  0
 18 19  2  0  0  0
 20 18  1  0  0  0
 20 35  1  0  0  0
 20 36  1  0  0  0
 20 37  1  0  0  0
M  END
$$$$
