M5Z
  CCTOOLS-0919241033

104109  0  0  1  0  0  0  0  0999 V2000
    1.0780    0.1750   -0.4140 C   0  0  0  0  0
    1.3050    1.2520    0.4970 O   0  0  0  0  0
    9.6550   -1.7320   -0.5630 C   0  0  0  0  0
    1.0980   -1.1500    0.3500 C   0  0  0  0  0
    0.1050   -1.1050    1.4320 N   0  0  0  0  0
   10.1860   -2.9840   -0.3140 C   0  0  0  0  0
    2.4920   -1.3810    0.9470 C   0  0  0  0  0
    2.5370   -2.6600    1.5820 O   0  0  0  0  0
    7.2290   -1.5510   -0.0810 C   0  0  0  0  0
   11.4400   -3.1020    0.2570 C   0  0  0  0  0
    3.5170   -1.3340   -0.1860 C   0  0  0  0  0
    4.8450   -1.4890    0.3130 O   0  0  0  0  0
    8.2890   -1.6030   -1.1840 C   0  0  0  0  0
   12.1630   -1.9690    0.5770 C   0  0  0  0  0
    3.4140    0.0290   -0.8840 C   0  0  0  0  0
    2.1000    0.1770   -1.4170 O   0  0  0  0  0
   11.6330   -0.7170    0.3280 C   0  0  0  0  0
    4.4700    0.0870   -1.9890 C   0  0  0  0  0
    5.7510   -0.1730   -1.4020 O   0  0  0  0  0
   10.3760   -0.5990   -0.2360 C   0  0  0  0  0
    5.8420   -1.4200   -0.7130 C   0  0  0  0  0
    0.2340    5.3390    0.2520 C   0  0  0  0  0
    1.6990    4.9590    0.0270 C   0  0  0  0  0
    1.9630    3.5740    0.6220 C   0  0  0  0  0
    1.0580    2.5450   -0.0590 C   0  0  0  0  0
   -0.4060    2.9260    0.1660 C   0  0  0  0  0
   -0.6710    4.3100   -0.4290 C   0  0  0  0  0
   -0.0200    6.6690   -0.3190 N   0  0  0  0  0
    3.3690    3.2090    0.4060 N   0  0  0  0  0
   -1.2510    1.9650   -0.4700 O   0  0  0  0  0
   -2.0390    4.6660   -0.2190 O   0  0  0  0  0
   -3.6340    0.5630    1.7620 C   0  0  0  0  0
   -2.3420    1.1270    1.4460 O   0  0  0  0  0
   -2.5150    1.7860    0.1730 C   0  0  0  0  0
   -3.4050    0.8280   -0.6490 C   0  0  0  0  0
   -4.3270    1.5670   -1.4530 O   0  0  0  0  0
   -4.1580    0.0050    0.4200 C   0  0  0  0  0
   -5.5680    0.2110    0.3100 O   0  0  0  0  0
   -3.4870   -0.5630    2.7860 C   0  0  0  0  0
   -3.0420   -0.0210    4.0310 O   0  0  0  0  0
   -6.8530   -3.0400   -0.6940 C   0  0  0  0  0
   -6.2360   -2.0140    0.0870 O   0  0  0  0  0
   -6.2280   -0.7300   -0.5400 C   0  0  0  0  0
   -7.6690   -0.2740   -0.7840 C   0  0  0  0  0
   -8.3650   -0.1360    0.5020 N   0  0  0  0  0
   -8.3870   -1.3170   -1.6460 C   0  0  0  0  0
   -7.7500   -1.4050   -2.9210 O   0  0  0  0  0
   -8.3190   -2.6770   -0.9440 C   0  0  0  0  0
   -9.0130   -2.6060    0.3030 O   0  0  0  0  0
   -6.7780   -4.3690    0.0610 C   0  0  0  0  0
   -5.3710   -4.7170    0.3020 N   0  0  0  0  0
    0.1060    0.3030   -0.8910 H   0  0  0  0  0
    0.8560   -1.9650   -0.3310 H   0  0  0  0  0
   -0.8230   -0.9570    1.0650 H   0  0  0  0  0
    0.1430   -1.9430    1.9930 H   0  0  0  0  0
    9.6210   -3.8700   -0.5640 H   0  0  0  0  0
    2.7120   -0.6010    1.6770 H   0  0  0  0  0
    1.8990   -2.7640    2.3020 H   0  0  0  0  0
    7.2750   -2.4660    0.5090 H   0  0  0  0  0
    7.4180   -0.6930    0.5630 H   0  0  0  0  0
   11.8540   -4.0800    0.4520 H   0  0  0  0  0
    3.3030   -2.1270   -0.9030 H   0  0  0  0  0
    8.2430   -0.6880   -1.7750 H   0  0  0  0  0
    8.1000   -2.4620   -1.8290 H   0  0  0  0  0
   13.1420   -2.0610    1.0240 H   0  0  0  0  0
    3.6040    0.8220   -0.1610 H   0  0  0  0  0
   12.1970    0.1690    0.5790 H   0  0  0  0  0
    4.2520   -0.6680   -2.7450 H   0  0  0  0  0
    4.4690    1.0770   -2.4460 H   0  0  0  0  0
    9.9610    0.3800   -0.4310 H   0  0  0  0  0
    5.6890   -2.2350   -1.4210 H   0  0  0  0  0
    0.0230    5.3570    1.3210 H   0  0  0  0  0
    1.9090    4.9410   -1.0420 H   0  0  0  0  0
    2.3430    5.6920    0.5120 H   0  0  0  0  0
    1.7520    3.5920    1.6910 H   0  0  0  0  0
    1.2690    2.5280   -1.1280 H   0  0  0  0  0
   -0.6170    2.9440    1.2350 H   0  0  0  0  0
   -0.4600    4.2930   -1.4980 H   0  0  0  0  0
    0.5660    7.3660    0.1140 H   0  0  0  0  0
    0.1060    6.6620   -1.3200 H   0  0  0  0  0
    3.9870    3.9270    0.7530 H   0  0  0  0  0
    3.5800    2.3170    0.8270 H   0  0  0  0  0
   -2.2780    5.5340   -0.5720 H   0  0  0  0  0
   -4.3030    1.3360    2.1410 H   0  0  0  0  0
   -3.0130    2.7460    0.3070 H   0  0  0  0  0
   -2.7930    0.1770   -1.2730 H   0  0  0  0  0
   -3.9060    2.1480   -2.1020 H   0  0  0  0  0
   -3.9200   -1.0540    0.3250 H   0  0  0  0  0
   -4.4500   -1.0540    2.9280 H   0  0  0  0  0
   -2.7590   -1.2900    2.4260 H   0  0  0  0  0
   -2.9270   -0.6800    4.7290 H   0  0  0  0  0
   -6.3330   -3.1340   -1.6470 H   0  0  0  0  0
   -5.7010   -0.7930   -1.4920 H   0  0  0  0  0
   -7.6650    0.6860   -1.3010 H   0  0  0  0  0
   -7.9060    0.5440    1.0900 H   0  0  0  0  0
   -9.3360    0.1020    0.3640 H   0  0  0  0  0
   -9.4290   -1.0260   -1.7780 H   0  0  0  0  0
   -8.1530   -2.0480   -3.5200 H   0  0  0  0  0
   -8.7800   -3.4360   -1.5750 H   0  0  0  0  0
   -9.9480   -2.3760    0.2200 H   0  0  0  0  0
   -7.2980   -4.2760    1.0140 H   0  0  0  0  0
   -7.2480   -5.1520   -0.5350 H   0  0  0  0  0
   -4.8960   -3.9770    0.7970 H   0  0  0  0  0
   -5.2950   -5.5910    0.7990 H   0  0  0  0  0
  1  2  1  0  0  0
  1  4  1  0  0  0
  1 16  1  0  0  0
  1 52  1  0  0  0
  2 25  1  0  0  0
  3  6  2  0  0  0
  3 13  1  0  0  0
  3 20  1  0  0  0
  4  5  1  0  0  0
  4  7  1  0  0  0
  4 53  1  0  0  0
  5 54  1  0  0  0
  5 55  1  0  0  0
  6 10  1  0  0  0
  6 56  1  0  0  0
  7  8  1  0  0  0
  7 11  1  0  0  0
  7 57  1  0  0  0
  8 58  1  0  0  0
  9 13  1  0  0  0
  9 21  1  0  0  0
  9 59  1  0  0  0
  9 60  1  0  0  0
 10 14  2  0  0  0
 10 61  1  0  0  0
 11 12  1  0  0  0
 11 15  1  0  0  0
 11 62  1  0  0  0
 12 21  1  0  0  0
 13 63  1  0  0  0
 13 64  1  0  0  0
 14 17  1  0  0  0
 14 65  1  0  0  0
 15 16  1  0  0  0
 15 18  1  0  0  0
 15 66  1  0  0  0
 17 20  2  0  0  0
 17 67  1  0  0  0
 18 19  1  0  0  0
 18 68  1  0  0  0
 18 69  1  0  0  0
 19 21  1  0  0  0
 20 70  1  0  0  0
 21 71  1  0  0  0
 22 28  1  0  0  0
 22 23  1  0  0  0
 22 27  1  0  0  0
 22 72  1  0  0  0
 23 24  1  0  0  0
 23 73  1  0  0  0
 23 74  1  0  0  0
 24 29  1  0  0  0
 24 25  1  0  0  0
 24 75  1  0  0  0
 25 26  1  0  0  0
 25 76  1  0  0  0
 26 30  1  0  0  0
 26 27  1  0  0  0
 26 77  1  0  0  0
 27 31  1  0  0  0
 27 78  1  0  0  0
 28 79  1  0  0  0
 28 80  1  0  0  0
 29 81  1  0  0  0
 29 82  1  0  0  0
 31 83  1  0  0  0
 32 33  1  0  0  0
 32 39  1  0  0  0
 32 84  1  0  0  0
 34 35  1  0  0  0
 34 33  1  0  0  0
 34 30  1  0  0  0
 34 85  1  0  0  0
 35 36  1  0  0  0
 35 37  1  0  0  0
 35 86  1  0  0  0
 36 87  1  0  0  0
 37 38  1  0  0  0
 37 32  1  0  0  0
 37 88  1  0  0  0
 39 40  1  0  0  0
 39 89  1  0  0  0
 39 90  1  0  0  0
 40 91  1  0  0  0
 41 42  1  0  0  0
 41 50  1  0  0  0
 41 92  1  0  0  0
 43 44  1  0  0  0
 43 38  1  0  0  0
 43 42  1  0  0  0
 43 93  1  0  0  0
 44 45  1  0  0  0
 44 46  1  0  0  0
 44 94  1  0  0  0
 45 95  1  0  0  0
 45 96  1  0  0  0
 46 47  1  0  0  0
 46 48  1  0  0  0
 46 97  1  0  0  0
 47 98  1  0  0  0
 48 49  1  0  0  0
 48 41  1  0  0  0
 48 99  1  0  0  0
 49100  1  0  0  0
 50 51  1  0  0  0
 50101  1  0  0  0
 50102  1  0  0  0
 51103  1  0  0  0
 51104  1  0  0  0
M  END
$$$$
