M8E
  CCTOOLS-0919241033

 55 57  0  0  1  0  0  0  0  0999 V2000
   -8.7760    2.8440   -0.6330 N   0  0  0  0  0
   -7.9190    1.9190    0.1100 O   0  0  0  0  0
   -4.6840    0.1100   -0.4990 C   0  0  0  0  0
   -3.8680   -0.8510    0.3690 C   0  0  0  0  0
   -2.6660   -1.2720   -0.3640 N   0  0  0  0  0
   -3.0220   -2.0790   -1.5380 C   0  0  0  0  0
   -1.7420   -2.0010    0.5150 C   0  0  0  0  0
   -0.4070   -2.2040   -0.2040 C   0  0  0  0  0
    0.2370   -0.9360   -0.4080 O   0  0  0  0  0
    1.6580   -1.1620   -0.2990 C   0  0  0  0  0
    2.3570    0.0870    0.0140 N   0  0  0  0  0
    3.5240    0.5300   -0.5560 C   0  0  0  0  0
    4.3500    0.0580   -1.4840 N   0  0  0  0  0
    5.4250    0.7340   -1.8320 C   0  0  0  0  0
    5.7390    1.8960   -1.2910 N   0  0  0  0  0
    4.9750    2.4490   -0.3550 C   0  0  0  0  0
    5.3120    3.6680    0.2070 N   0  0  0  0  0
    3.8130    1.7660    0.0520 C   0  0  0  0  0
    2.8320    2.0160    0.9460 N   0  0  0  0  0
    1.9630    1.0330    0.9280 C   0  0  0  0  0
    1.7760   -2.1630    0.8790 C   0  0  0  0  0
    2.9790   -2.9280    0.7800 O   0  0  0  0  0
    0.5320   -3.0610    0.6670 C   0  0  0  0  0
    0.8930   -4.2620   -0.0190 O   0  0  0  0  0
   -5.9350    0.5490    0.2650 C   0  0  0  0  0
   -6.7510    1.5090   -0.6030 C   0  0  0  0  0
    0.4700    1.9330    2.6160 C   0  0  0  0  0
    0.7530    0.9540    1.7620 C   0  0  0  0  0
   -9.0480    2.4510   -1.5220 H   0  0  0  0  0
   -9.5850    3.1030   -0.0890 H   0  0  0  0  0
   -4.0790    0.9840   -0.7390 H   0  0  0  0  0
   -4.9780   -0.3940   -1.4200 H   0  0  0  0  0
   -3.5740   -0.3470    1.2900 H   0  0  0  0  0
   -4.4720   -1.7250    0.6100 H   0  0  0  0  0
   -3.6510   -1.4900   -2.2070 H   0  0  0  0  0
   -2.1140   -2.3780   -2.0630 H   0  0  0  0  0
   -3.5660   -2.9680   -1.2180 H   0  0  0  0  0
   -1.5790   -1.4270    1.4270 H   0  0  0  0  0
   -2.1700   -2.9710    0.7680 H   0  0  0  0  0
   -0.5750   -2.6930   -1.1640 H   0  0  0  0  0
    2.0490   -1.5990   -1.2180 H   0  0  0  0  0
    6.0760    0.3210   -2.5890 H   0  0  0  0  0
    6.1150    4.1290   -0.0810 H   0  0  0  0  0
    4.7460    4.0610    0.8890 H   0  0  0  0  0
    1.7230   -1.6450    1.8360 H   0  0  0  0  0
    3.0980   -3.5680    1.4950 H   0  0  0  0  0
    0.0620   -3.2920    1.6220 H   0  0  0  0  0
    1.4850   -4.8390    0.4840 H   0  0  0  0  0
   -6.5390   -0.3260    0.5050 H   0  0  0  0  0
   -5.6410    1.0520    1.1860 H   0  0  0  0  0
   -7.0450    1.0060   -1.5240 H   0  0  0  0  0
   -6.1470    2.3840   -0.8440 H   0  0  0  0  0
    1.1280    2.7850    2.6970 H   0  0  0  0  0
   -0.4180    1.8750    3.2280 H   0  0  0  0  0
    0.0950    0.1010    1.6810 H   0  0  0  0  0
  1  2  1  0  0  0
  1 29  1  0  0  0
  1 30  1  0  0  0
  2 26  1  0  0  0
  3  4  1  0  0  0
  3 25  1  0  0  0
  3 31  1  0  0  0
  3 32  1  0  0  0
  4  5  1  0  0  0
  4 33  1  0  0  0
  4 34  1  0  0  0
  5  6  1  0  0  0
  5  7  1  0  0  0
  6 35  1  0  0  0
  6 36  1  0  0  0
  6 37  1  0  0  0
  7  8  1  0  0  0
  7 38  1  0  0  0
  7 39  1  0  0  0
  8  9  1  0  0  0
  8 23  1  0  0  0
  8 40  1  0  0  0
  9 10  1  0  0  0
 10 11  1  0  0  0
 10 21  1  0  0  0
 10 41  1  0  0  0
 11 12  1  0  0  0
 11 20  1  0  0  0
 12 13  2  0  0  0
 12 18  1  0  0  0
 13 14  1  0  0  0
 14 15  2  0  0  0
 14 42  1  0  0  0
 15 16  1  0  0  0
 16 17  1  0  0  0
 16 18  2  0  0  0
 17 43  1  0  0  0
 17 44  1  0  0  0
 18 19  1  0  0  0
 19 20  2  0  0  0
 20 28  1  0  0  0
 21 22  1  0  0  0
 21 23  1  0  0  0
 21 45  1  0  0  0
 22 46  1  0  0  0
 23 24  1  0  0  0
 23 47  1  0  0  0
 24 48  1  0  0  0
 25 26  1  0  0  0
 25 49  1  0  0  0
 25 50  1  0  0  0
 26 51  1  0  0  0
 26 52  1  0  0  0
 27 28  2  0  0  0
 27 53  1  0  0  0
 27 54  1  0  0  0
 28 55  1  0  0  0
M  END
$$$$
