M8M
  CCTOOLS-1004241129

 48 50  0  0  1  0  0  0  0  0999 V2000
   -2.7700    3.9410    0.3770 N   0  0  0  0  0
   -3.4050    2.8390   -0.3470 O   0  0  0  0  0
   -4.2420    2.0150    0.4670 C   0  0  0  0  0
   -4.8500    0.9030   -0.3890 C   0  0  0  0  0
   -3.7820    0.0200   -0.8770 N   0  0  0  0  0
   -4.2590   -0.8240   -1.9800 C   0  0  0  0  0
   -3.2360   -0.7980    0.2140 C   0  0  0  0  0
   -1.9730   -1.5140   -0.2690 C   0  0  0  0  0
   -0.9370   -0.5530   -0.5330 O   0  0  0  0  0
    0.3170   -1.1800   -0.1860 C   0  0  0  0  0
    1.3470   -0.1680    0.0670 N   0  0  0  0  0
    2.6450   -0.2030   -0.3760 C   0  0  0  0  0
    3.3660   -1.0490   -1.1040 N   0  0  0  0  0
    4.6300   -0.7970   -1.3700 C   0  0  0  0  0
    5.2420    0.2900   -0.9370 N   0  0  0  0  0
    4.6020    1.1940   -0.2020 C   0  0  0  0  0
    5.2520    2.3300    0.2480 N   0  0  0  0  0
    3.2500    0.9690    0.1080 C   0  0  0  0  0
    2.3080    1.6450    0.8080 N   0  0  0  0  0
    1.1890    0.9820    0.7800 C   0  0  0  0  0
   -0.0140   -1.9580    1.1120 C   0  0  0  0  0
    0.8820   -3.0570    1.2900 O   0  0  0  0  0
   -1.4520   -2.4580    0.8330 C   0  0  0  0  0
   -1.4310   -3.8080    0.3660 O   0  0  0  0  0
   -0.0930    1.4200    1.4420 C   0  0  0  0  0
   -2.2380    3.5980    1.1620 H   0  0  0  0  0
   -2.1910    4.4920   -0.2390 H   0  0  0  0  0
   -3.6490    1.5740    1.2680 H   0  0  0  0  0
   -5.0400    2.6200    0.8970 H   0  0  0  0  0
   -5.5530    0.3250    0.2110 H   0  0  0  0  0
   -5.3740    1.3420   -1.2380 H   0  0  0  0  0
   -4.5400   -0.1950   -2.8250 H   0  0  0  0  0
   -3.4660   -1.5070   -2.2840 H   0  0  0  0  0
   -5.1250   -1.3970   -1.6510 H   0  0  0  0  0
   -2.9890   -0.1570    1.0610 H   0  0  0  0  0
   -3.9770   -1.5360    0.5210 H   0  0  0  0  0
   -2.1910   -2.0820   -1.1730 H   0  0  0  0  0
    0.6360   -1.8610   -0.9750 H   0  0  0  0  0
    5.1880   -1.5060   -1.9640 H   0  0  0  0  0
    6.1860    2.4740    0.0270 H   0  0  0  0  0
    4.7740    2.9830    0.7830 H   0  0  0  0  0
    0.0080   -1.2970    1.9780 H   0  0  0  0  0
    0.7150   -3.5750    2.0900 H   0  0  0  0  0
   -2.0660   -2.3730    1.7300 H   0  0  0  0  0
   -1.1120   -4.4450    1.0190 H   0  0  0  0  0
   -0.1270    1.0310    2.4600 H   0  0  0  0  0
   -0.1350    2.5090    1.4680 H   0  0  0  0  0
   -0.9430    1.0370    0.8780 H   0  0  0  0  0
  1  2  1  0  0  0
  1 26  1  0  0  0
  1 27  1  0  0  0
  2  3  1  0  0  0
  3  4  1  0  0  0
  3 28  1  0  0  0
  3 29  1  0  0  0
  4  5  1  0  0  0
  4 30  1  0  0  0
  4 31  1  0  0  0
  5  6  1  0  0  0
  5  7  1  0  0  0
  6 32  1  0  0  0
  6 33  1  0  0  0
  6 34  1  0  0  0
  7  8  1  0  0  0
  7 35  1  0  0  0
  7 36  1  0  0  0
  8  9  1  0  0  0
  8 23  1  0  0  0
  8 37  1  0  0  0
  9 10  1  0  0  0
 10 11  1  0  0  0
 10 21  1  0  0  0
 10 38  1  0  0  0
 11 12  1  0  0  0
 11 20  1  0  0  0
 12 13  2  0  0  0
 12 18  1  0  0  0
 13 14  1  0  0  0
 14 15  2  0  0  0
 14 39  1  0  0  0
 15 16  1  0  0  0
 16 17  1  0  0  0
 16 18  2  0  0  0
 17 40  1  0  0  0
 17 41  1  0  0  0
 18 19  1  0  0  0
 19 20  2  0  0  0
 20 25  1  0  0  0
 21 22  1  0  0  0
 21 23  1  0  0  0
 21 42  1  0  0  0
 22 43  1  0  0  0
 23 24  1  0  0  0
 23 44  1  0  0  0
 24 45  1  0  0  0
 25 46  1  0  0  0
 25 47  1  0  0  0
 25 48  1  0  0  0
M  END
$$$$
