MA1
  CCTOOLS-0919241033

 24 24  0  0  1  0  0  0  0  0999 V2000
    1.3520   -0.5170   -1.0310 C   0  0  0  0  0
    0.0030   -0.7730   -1.7060 C   0  0  0  0  0
   -1.0850    0.0020   -0.9560 C   0  0  0  0  0
   -1.0170   -0.3720    0.5280 C   0  0  0  0  0
    0.4080   -0.1450    1.0340 C   0  0  0  0  0
    0.4780   -0.4820    2.5250 C   0  0  0  0  0
    1.7050    1.2610   -1.0470 S   0  0  0  0  0
    0.0560   -0.3320   -3.0650 O   0  0  0  0  0
   -2.3680   -0.3420   -1.4820 O   0  0  0  0  0
   -2.1670    0.6670    1.4690 S   0  0  0  0  0
    1.3130   -0.9810    0.3160 O   0  0  0  0  0
    1.8090   -0.2680    3.0000 O   0  0  0  0  0
    2.1350   -1.0470   -1.5740 H   0  0  0  0  0
   -0.2230   -1.8390   -1.6780 H   0  0  0  0  0
   -0.9180    1.0720   -1.0730 H   0  0  0  0  0
   -1.2880   -1.4200    0.6530 H   0  0  0  0  0
    0.6840    0.8980    0.8850 H   0  0  0  0  0
    0.2030   -1.5260    2.6750 H   0  0  0  0  0
   -0.2100    0.1580    3.0750 H   0  0  0  0  0
    2.9010    1.2670   -0.4320 H   0  0  0  0  0
    0.7570   -0.8400   -3.4960 H   0  0  0  0  0
   -2.3600   -0.1010   -2.4190 H   0  0  0  0  0
   -3.3260    0.3320    0.8740 H   0  0  0  0  0
    1.8100   -0.4910    3.9410 H   0  0  0  0  0
  1  2  1  0  0  0
  1  7  1  0  0  0
  1 11  1  0  0  0
  1 13  1  0  0  0
  2  3  1  0  0  0
  2  8  1  0  0  0
  2 14  1  0  0  0
  3  4  1  0  0  0
  3  9  1  0  0  0
  3 15  1  0  0  0
  4  5  1  0  0  0
  4 10  1  0  0  0
  4 16  1  0  0  0
  5  6  1  0  0  0
  5 11  1  0  0  0
  5 17  1  0  0  0
  6 12  1  0  0  0
  6 18  1  0  0  0
  6 19  1  0  0  0
  7 20  1  0  0  0
  8 21  1  0  0  0
  9 22  1  0  0  0
 10 23  1  0  0  0
 12 24  1  0  0  0
M  END
$$$$
