MA2
  CCTOOLS-0919241033

 27 27  0  0  1  0  0  0  0  0999 V2000
   -1.6480   -0.0550   -1.2190 C   0  0  0  0  0
   -0.4100    0.4710   -1.9470 C   0  0  0  0  0
    0.8380    0.1320   -1.1250 C   0  0  0  0  0
    0.6430    0.6590    0.3010 C   0  0  0  0  0
   -0.6740    0.1170    0.8590 C   0  0  0  0  0
   -0.8610    0.6140    2.2940 C   0  0  0  0  0
    1.7840   -1.6900    1.2480 C   0  0  0  0  0
   -1.5280   -1.4690   -1.0440 O   0  0  0  0  0
   -0.3160   -0.1390   -3.2360 O   0  0  0  0  0
    1.9840    0.7460   -1.7170 O   0  0  0  0  0
    2.0190    0.1050    1.3460 S   0  0  0  0  0
   -1.7620    0.5710    0.0560 O   0  0  0  0  0
   -2.0910    0.1090    2.8170 O   0  0  0  0  0
   -2.5370    0.1620   -1.8100 H   0  0  0  0  0
   -0.4870    1.5520   -2.0610 H   0  0  0  0  0
    0.9750   -0.9480   -1.0970 H   0  0  0  0  0
    0.6120    1.7490    0.2860 H   0  0  0  0  0
   -0.6490   -0.9710    0.8530 H   0  0  0  0  0
   -0.0330    0.2640    2.9110 H   0  0  0  0  0
   -0.8830    1.7040    2.3010 H   0  0  0  0  0
    2.5620   -2.1900    1.8270 H   0  0  0  0  0
    0.8060   -1.9510    1.6530 H   0  0  0  0  0
    1.8440   -2.0090    0.2080 H   0  0  0  0  0
   -2.3280   -1.7620   -0.5870 H   0  0  0  0  0
   -1.1230    0.0950   -3.7150 H   0  0  0  0  0
    2.0580    0.3920   -2.6140 H   0  0  0  0  0
   -2.1700    0.4450    3.7200 H   0  0  0  0  0
  1  2  1  0  0  0
  1  8  1  0  0  0
  1 12  1  0  0  0
  1 14  1  0  0  0
  2  3  1  0  0  0
  2  9  1  0  0  0
  2 15  1  0  0  0
  3  4  1  0  0  0
  3 10  1  0  0  0
  3 16  1  0  0  0
  4  5  1  0  0  0
  4 11  1  0  0  0
  4 17  1  0  0  0
  5  6  1  0  0  0
  5 12  1  0  0  0
  5 18  1  0  0  0
  6 13  1  0  0  0
  6 19  1  0  0  0
  6 20  1  0  0  0
  7 11  1  0  0  0
  7 21  1  0  0  0
  7 22  1  0  0  0
  7 23  1  0  0  0
  8 24  1  0  0  0
  9 25  1  0  0  0
 10 26  1  0  0  0
 13 27  1  0  0  0
M  END
$$$$
