MA3
  CCTOOLS-0919241033

 27 27  0  0  1  0  0  0  0  0999 V2000
    1.5030    0.4110    0.7960 C   0  0  0  0  0
    0.3360    0.6440    1.7590 C   0  0  0  0  0
   -0.8980   -0.0940    1.2360 C   0  0  0  0  0
   -1.1520    0.3400   -0.2110 C   0  0  0  0  0
    0.1260    0.1300   -1.0260 C   0  0  0  0  0
   -0.1270    0.5310   -2.4800 C   0  0  0  0  0
    2.8550   -1.1430   -0.2130 C   0  0  0  0  0
    1.7600   -0.9900    0.6910 O   0  0  0  0  0
    0.6780    0.1460    3.0540 O   0  0  0  0  0
   -2.0330    0.2330    2.0400 O   0  0  0  0  0
   -2.4930   -0.6540   -0.9200 S   0  0  0  0  0
    1.1770    0.9310   -0.4900 O   0  0  0  0  0
    1.0620    0.3290   -3.2450 O   0  0  0  0  0
    2.3920    0.9140    1.1760 H   0  0  0  0  0
    0.1240    1.7110    1.8230 H   0  0  0  0  0
   -0.7240   -1.1690    1.2700 H   0  0  0  0  0
   -1.4290    1.3940   -0.2320 H   0  0  0  0  0
    0.4130   -0.9200   -0.9840 H   0  0  0  0  0
   -0.9310   -0.0800   -2.8910 H   0  0  0  0  0
   -0.4130    1.5820   -2.5230 H   0  0  0  0  0
    3.0880   -2.2020   -0.3250 H   0  0  0  0  0
    2.5860   -0.7250   -1.1830 H   0  0  0  0  0
    3.7260   -0.6190    0.1790 H   0  0  0  0  0
    1.4590    0.6360    3.3450 H   0  0  0  0  0
   -1.8310   -0.0570    2.9400 H   0  0  0  0  0
   -3.4920   -0.3310   -0.0790 H   0  0  0  0  0
    0.8590    0.5920   -4.1530 H   0  0  0  0  0
  1  2  1  0  0  0
  1  8  1  0  0  0
  1 12  1  0  0  0
  1 14  1  0  0  0
  2  3  1  0  0  0
  2  9  1  0  0  0
  2 15  1  0  0  0
  3  4  1  0  0  0
  3 10  1  0  0  0
  3 16  1  0  0  0
  4  5  1  0  0  0
  4 11  1  0  0  0
  4 17  1  0  0  0
  5  6  1  0  0  0
  5 12  1  0  0  0
  5 18  1  0  0  0
  6 13  1  0  0  0
  6 19  1  0  0  0
  6 20  1  0  0  0
  7  8  1  0  0  0
  7 21  1  0  0  0
  7 22  1  0  0  0
  7 23  1  0  0  0
  9 24  1  0  0  0
 10 25  1  0  0  0
 11 26  1  0  0  0
 13 27  1  0  0  0
M  END
$$$$
