MAA
  CCTOOLS-1004241129

 16 15  0  0  1  0  0  0  0  0999 V2000
   -1.3110   -0.5770    0.2380 N   0  0  0  0  0
   -2.6040   -0.3470   -0.4190 C   0  0  0  0  0
   -0.2930    0.3590   -0.2580 C   0  0  0  0  0
   -0.3830    1.6710    0.5240 C   0  0  0  0  0
    1.0760   -0.2430   -0.0740 C   0  0  0  0  0
    1.1920   -1.3390    0.4210 O   0  0  0  0  0
    2.1660    0.4400   -0.4580 O   0  0  0  0  0
   -1.3990   -0.5160    1.2420 H   0  0  0  0  0
   -2.9380    0.6710   -0.2180 H   0  0  0  0  0
   -2.4940   -0.4870   -1.4950 H   0  0  0  0  0
   -3.3390   -1.0540   -0.0330 H   0  0  0  0  0
   -0.4650    0.5550   -1.3160 H   0  0  0  0  0
   -0.2120    1.4760    1.5830 H   0  0  0  0  0
    0.3710    2.3660    0.1560 H   0  0  0  0  0
   -1.3740    2.1070    0.3910 H   0  0  0  0  0
    3.0230    0.0130   -0.3200 H   0  0  0  0  0
  1  2  1  0  0  0
  1  3  1  0  0  0
  1  8  1  0  0  0
  2  9  1  0  0  0
  2 10  1  0  0  0
  2 11  1  0  0  0
  3  4  1  0  0  0
  3  5  1  0  0  0
  3 12  1  0  0  0
  4 13  1  0  0  0
  4 14  1  0  0  0
  4 15  1  0  0  0
  5  6  2  0  0  0
  5  7  1  0  0  0
  7 16  1  0  0  0
M  END
$$$$
