MAG
  CCTOOLS-0919241034

 33 33  0  0  1  0  0  0  0  0999 V2000
    0.8870   -0.3060    0.1190 C   0  0  0  0  0
   -0.4310    0.1260    0.7640 C   0  0  0  0  0
   -1.5930   -0.3030   -0.1380 C   0  0  0  0  0
   -1.3460    0.2450   -1.5480 C   0  0  0  0  0
    0.0420   -0.1950   -2.0180 C   0  0  0  0  0
    0.2840    0.3200   -3.4380 C   0  0  0  0  0
   -0.0980    0.1070    3.1780 C   0  0  0  0  0
   -0.2390   -0.5480    4.5270 C   0  0  0  0  0
   -0.5680   -0.5100    2.0760 N   0  0  0  0  0
    1.9750    0.0600    0.9700 O   0  0  0  0  0
   -2.8200    0.2220    0.3710 O   0  0  0  0  0
   -2.3370   -0.2630   -2.4420 O   0  0  0  0  0
    1.0380    0.3330   -1.1450 O   0  0  0  0  0
    1.5760   -0.0960   -3.8820 O   0  0  0  0  0
    0.4370    1.1910    3.0830 O   0  0  0  0  0
    3.1720   -0.3710    0.3200 C   0  0  0  0  0
    0.8840   -1.3870   -0.0190 H   0  0  0  0  0
   -0.4420    1.2100    0.8820 H   0  0  0  0  0
   -1.6470   -1.3910   -0.1730 H   0  0  0  0  0
   -1.3950    1.3340   -1.5300 H   0  0  0  0  0
    0.0970   -1.2840   -2.0140 H   0  0  0  0  0
   -0.4770   -0.0830   -4.1060 H   0  0  0  0  0
    0.2310    1.4080   -3.4430 H   0  0  0  0  0
    0.1950    0.0950    5.2910 H   0  0  0  0  0
   -1.2950   -0.7080    4.7450 H   0  0  0  0  0
    0.2790   -1.5060    4.5210 H   0  0  0  0  0
   -0.9960   -1.3770    2.1510 H   0  0  0  0  0
   -3.5190   -0.0620   -0.2330 H   0  0  0  0  0
   -2.1400    0.1000   -3.3150 H   0  0  0  0  0
    1.6880    0.2480   -4.7790 H   0  0  0  0  0
    4.0330   -0.1110    0.9350 H   0  0  0  0  0
    3.1390   -1.4510    0.1780 H   0  0  0  0  0
    3.2560    0.1200   -0.6490 H   0  0  0  0  0
  1  2  1  0  0  0
  1 10  1  0  0  0
  1 13  1  0  0  0
  1 17  1  0  0  0
  2  3  1  0  0  0
  2  9  1  0  0  0
  2 18  1  0  0  0
  3  4  1  0  0  0
  3 11  1  0  0  0
  3 19  1  0  0  0
  4  5  1  0  0  0
  4 12  1  0  0  0
  4 20  1  0  0  0
  5  6  1  0  0  0
  5 13  1  0  0  0
  5 21  1  0  0  0
  6 14  1  0  0  0
  6 22  1  0  0  0
  6 23  1  0  0  0
  7  8  1  0  0  0
  7  9  1  0  0  0
  7 15  2  0  0  0
  8 24  1  0  0  0
  8 25  1  0  0  0
  8 26  1  0  0  0
  9 27  1  0  0  0
 10 16  1  0  0  0
 11 28  1  0  0  0
 12 29  1  0  0  0
 14 30  1  0  0  0
 16 31  1  0  0  0
 16 32  1  0  0  0
 16 33  1  0  0  0
M  END
$$$$
