MAL
  CCTOOLS-0919241034

 45 46  0  0  1  0  0  0  0  0999 V2000
   -3.9280    0.5540    0.1630 C   0  0  0  0  0
   -3.4940   -0.5410   -0.8140 C   0  0  0  0  0
   -2.1750   -1.1520   -0.3310 C   0  0  0  0  0
   -1.1290   -0.0410   -0.2010 C   0  0  0  0  0
   -1.6540    1.0350    0.7530 C   0  0  0  0  0
   -0.6400    2.1770    0.8420 C   0  0  0  0  0
   -4.1620   -0.0210    1.4500 O   0  0  0  0  0
   -4.4980   -1.5560   -0.8700 O   0  0  0  0  0
   -1.7260   -2.1260   -1.2750 O   0  0  0  0  0
    0.0860   -0.5880    0.3180 O   0  0  0  0  0
   -2.8980    1.5390    0.2610 O   0  0  0  0  0
   -1.0930    3.1440    1.7920 O   0  0  0  0  0
    0.9480   -1.1390   -0.6790 C   0  0  0  0  0
    2.0470   -1.9640   -0.0040 C   0  0  0  0  0
    2.8910   -1.0460    0.8840 C   0  0  0  0  0
    3.4600    0.0920    0.0300 C   0  0  0  0  0
    2.3060    0.8370   -0.6460 C   0  0  0  0  0
    2.8690    1.9380   -1.5480 C   0  0  0  0  0
    1.4520   -2.9880    0.7950 O   0  0  0  0  0
    3.9640   -1.7930    1.4610 O   0  0  0  0  0
    4.1900    0.9950    0.8630 O   0  0  0  0  0
    1.5430   -0.0800   -1.4320 O   0  0  0  0  0
    1.7930    2.7080   -2.0880 O   0  0  0  0  0
   -4.8450    1.0210   -0.1980 H   0  0  0  0  0
   -3.3550   -0.1110   -1.8060 H   0  0  0  0  0
   -2.3260   -1.6260    0.6380 H   0  0  0  0  0
   -0.9400    0.4000   -1.1800 H   0  0  0  0  0
   -1.8030    0.6030    1.7420 H   0  0  0  0  0
   -0.5370    2.6490   -0.1350 H   0  0  0  0  0
    0.3260    1.7820    1.1580 H   0  0  0  0  0
   -4.4410    0.6170    2.1210 H   0  0  0  0  0
   -5.3630   -1.2390   -1.1640 H   0  0  0  0  0
   -2.3450   -2.8570   -1.4110 H   0  0  0  0  0
   -0.4980    3.8980    1.9000 H   0  0  0  0  0
    0.3700   -1.7790   -1.3460 H   0  0  0  0  0
    2.6810   -2.4180   -0.7660 H   0  0  0  0  0
    2.2680   -0.6320    1.6770 H   0  0  0  0  0
    4.1240   -0.3200   -0.7300 H   0  0  0  0  0
    1.6660    1.2840    0.1150 H   0  0  0  0  0
    3.4360    1.4850   -2.3620 H   0  0  0  0  0
    3.5240    2.5860   -0.9650 H   0  0  0  0  0
    0.8980   -3.6040    0.2970 H   0  0  0  0  0
    3.6760   -2.5350    2.0100 H   0  0  0  0  0
    4.9340    0.5880    1.3270 H   0  0  0  0  0
    2.0770    3.4250   -2.6710 H   0  0  0  0  0
  1  7  1  0  0  0
  1 24  1  0  0  0
  2  1  1  0  0  0
  2  3  1  0  0  0
  2  8  1  0  0  0
  2 25  1  0  0  0
  3 26  1  0  0  0
  4  5  1  0  0  0
  4 10  1  0  0  0
  4  3  1  0  0  0
  4 27  1  0  0  0
  5 28  1  0  0  0
  6 12  1  0  0  0
  6  5  1  0  0  0
  6 30  1  0  0  0
  6 29  1  0  0  0
  7 31  1  0  0  0
  8 32  1  0  0  0
  9  3  1  0  0  0
  9 33  1  0  0  0
 11  5  1  0  0  0
 11  1  1  0  0  0
 12 34  1  0  0  0
 13 10  1  0  0  0
 13 14  1  0  0  0
 13 35  1  0  0  0
 14 19  1  0  0  0
 14 15  1  0  0  0
 14 36  1  0  0  0
 15 20  1  0  0  0
 15 37  1  0  0  0
 16 15  1  0  0  0
 16 21  1  0  0  0
 16 38  1  0  0  0
 17 16  1  0  0  0
 17 39  1  0  0  0
 18 17  1  0  0  0
 18 41  1  0  0  0
 18 40  1  0  0  0
 19 42  1  0  0  0
 20 43  1  0  0  0
 21 44  1  0  0  0
 22 13  1  0  0  0
 22 17  1  0  0  0
 23 18  1  0  0  0
 23 45  1  0  0  0
M  END
$$$$
