MBG
  CCTOOLS-0919241034

 27 27  0  0  1  0  0  0  0  0999 V2000
    1.1690    0.1850   -0.3270 C   0  0  0  0  0
    0.2570   -0.1320   -1.5140 C   0  0  0  0  0
   -1.0920    0.5650   -1.3070 C   0  0  0  0  0
   -1.6450    0.1650    0.0640 C   0  0  0  0  0
   -0.5890    0.4590    1.1330 C   0  0  0  0  0
   -1.1450    0.0920    2.5100 C   0  0  0  0  0
    3.2450   -0.0990    0.6060 C   0  0  0  0  0
    2.4410   -0.4330   -0.5260 O   0  0  0  0  0
    0.8590    0.3400   -2.7200 O   0  0  0  0  0
   -2.0050    0.1610   -2.3290 O   0  0  0  0  0
   -1.9540   -1.2300    0.0690 O   0  0  0  0  0
    0.5840   -0.3090    0.8760 O   0  0  0  0  0
   -0.1630    0.3720    3.5100 O   0  0  0  0  0
    1.3000    1.2650   -0.2490 H   0  0  0  0  0
    0.1040   -1.2090   -1.5800 H   0  0  0  0  0
   -0.9550    1.6460   -1.3450 H   0  0  0  0  0
   -2.5470    0.7390    0.2760 H   0  0  0  0  0
   -0.3390    1.5190    1.1130 H   0  0  0  0  0
   -2.0420    0.6790    2.7070 H   0  0  0  0  0
   -1.3930   -0.9680    2.5310 H   0  0  0  0  0
    4.2310   -0.5520    0.4980 H   0  0  0  0  0
    3.3490    0.9830    0.6720 H   0  0  0  0  0
    2.7700   -0.4750    1.5120 H   0  0  0  0  0
    1.7030   -0.1220   -2.8110 H   0  0  0  0  0
   -1.6190    0.4320   -3.1730 H   0  0  0  0  0
   -2.6210   -1.3700   -0.6160 H   0  0  0  0  0
   -0.5530    0.1280    4.3600 H   0  0  0  0  0
  1  2  1  0  0  0
  1  8  1  0  0  0
  1 12  1  0  0  0
  1 14  1  0  0  0
  2  3  1  0  0  0
  2  9  1  0  0  0
  2 15  1  0  0  0
  3  4  1  0  0  0
  3 10  1  0  0  0
  3 16  1  0  0  0
  4  5  1  0  0  0
  4 11  1  0  0  0
  4 17  1  0  0  0
  5  6  1  0  0  0
  5 12  1  0  0  0
  5 18  1  0  0  0
  6 13  1  0  0  0
  6 19  1  0  0  0
  6 20  1  0  0  0
  7  8  1  0  0  0
  7 21  1  0  0  0
  7 22  1  0  0  0
  7 23  1  0  0  0
  9 24  1  0  0  0
 10 25  1  0  0  0
 11 26  1  0  0  0
 13 27  1  0  0  0
M  END
$$$$
