MBN
  CCTOOLS-0919241034

 15 15  0  0  0  0  0  0  0  0999 V2000
    0.0000    0.0010    2.4320 C   0  0  0  0  0
    0.0000    0.0010    0.9250 C   0  0  0  0  0
    1.1970   -0.0000    0.2340 C   0  0  0  0  0
    1.1970   -0.0000   -1.1470 C   0  0  0  0  0
    0.0000    0.0000   -1.8380 C   0  0  0  0  0
   -1.1970    0.0010   -1.1470 C   0  0  0  0  0
   -1.1970   -0.0030    0.2340 C   0  0  0  0  0
    0.8890   -0.5140    2.7960 H   0  0  0  0  0
    0.0010    1.0280    2.7960 H   0  0  0  0  0
   -0.8900   -0.5110    2.7960 H   0  0  0  0  0
    2.1320   -0.0010    0.7740 H   0  0  0  0  0
    2.1320   -0.0010   -1.6870 H   0  0  0  0  0
    0.0000    0.0010   -2.9180 H   0  0  0  0  0
   -2.1320    0.0020   -1.6870 H   0  0  0  0  0
   -2.1320   -0.0020    0.7740 H   0  0  0  0  0
  1  2  1  0  0  0
  1  8  1  0  0  0
  1  9  1  0  0  0
  1 10  1  0  0  0
  2  3  2  0  0  0
  2  7  1  0  0  0
  3  4  1  0  0  0
  3 11  1  0  0  0
  4  5  2  0  0  0
  4 12  1  0  0  0
  5  6  1  0  0  0
  5 13  1  0  0  0
  6  7  2  0  0  0
  6 14  1  0  0  0
  7 15  1  0  0  0
M  END
$$$$
