MDC
  CCTOOLS-0919241034

 49 51  0  0  0  0  0  0  0  0999 V2000
   -2.2270   -1.1810   -4.4480 C   0  0  0  0  0
   -2.5510   -0.0940   -5.4930 C   0  0  0  0  0
   -1.2010    0.5170   -5.8000 C   0  0  0  0  0
   -1.0020    1.4210   -6.5830 O   0  0  0  0  0
   -0.2630   -0.0970   -5.0690 N   0  0  0  0  0
   -0.7270   -1.0720   -4.2780 C   0  0  0  0  0
   -0.0530   -1.7560   -3.5370 O   0  0  0  0  0
    1.0910    0.2460   -5.1320 C   0  0  0  0  0
    1.8110    0.3100   -4.0210 C   0  0  0  0  0
    1.1870    0.2020   -2.7780 N   0  0  0  0  0
    1.9280    0.1420   -1.6540 C   0  0  0  0  0
    3.1410    0.0880   -1.7280 O   0  0  0  0  0
   -0.7550   -0.2760    0.9110 O   0  0  0  0  0
   -0.1950    0.2240   -0.2170 C   0  0  0  0  0
   -0.8750    0.7210   -1.0940 O   0  0  0  0  0
    1.2710    0.1420   -0.3380 C   0  0  0  0  0
    2.0100    0.0630    0.8360 C   0  0  0  0  0
    1.3160    0.0340    2.0680 C   0  0  0  0  0
   -0.0850   -0.1180    2.0790 C   0  0  0  0  0
    2.0130    0.1450    3.2830 C   0  0  0  0  0
    1.3290    0.1470    4.4600 C   0  0  0  0  0
   -0.0620    0.0290    4.4720 C   0  0  0  0  0
   -0.7460    0.0470    5.6820 N   0  0  0  0  0
   -0.7660   -0.1110    3.2840 C   0  0  0  0  0
   -0.0220    0.3020    6.9290 C   0  0  0  0  0
    0.4640   -1.0230    7.5170 C   0  0  0  0  0
   -2.1920   -0.1890    5.7090 C   0  0  0  0  0
   -2.9290    1.1330    5.4930 C   0  0  0  0  0
   -2.7390   -0.9740   -3.5080 H   0  0  0  0  0
   -2.4960   -2.1670   -4.8240 H   0  0  0  0  0
   -3.2250    0.6520   -5.0740 H   0  0  0  0  0
   -2.9820   -0.5400   -6.3890 H   0  0  0  0  0
    1.5500    0.4600   -6.0860 H   0  0  0  0  0
    2.8810    0.4460   -4.0770 H   0  0  0  0  0
    0.2190    0.1700   -2.7230 H   0  0  0  0  0
    3.0890    0.0260    0.8090 H   0  0  0  0  0
    3.0900    0.2290    3.2830 H   0  0  0  0  0
    1.8670    0.2410    5.3920 H   0  0  0  0  0
   -1.8420   -0.2100    3.2990 H   0  0  0  0  0
   -0.6850    0.7930    7.6410 H   0  0  0  0  0
    0.8330    0.9460    6.7270 H   0  0  0  0  0
    1.0030   -0.8330    8.4450 H   0  0  0  0  0
   -0.3910   -1.6670    7.7190 H   0  0  0  0  0
    1.1280   -1.5140    6.8050 H   0  0  0  0  0
   -2.4600   -0.8880    4.9170 H   0  0  0  0  0
   -2.4730   -0.6080    6.6750 H   0  0  0  0  0
   -4.0050    0.9570    5.5140 H   0  0  0  0  0
   -2.6600    1.8330    6.2850 H   0  0  0  0  0
   -2.6480    1.5520    4.5270 H   0  0  0  0  0
  1  2  1  0  0  0
  1  6  1  0  0  0
  1 29  1  0  0  0
  1 30  1  0  0  0
  2  3  1  0  0  0
  2 31  1  0  0  0
  2 32  1  0  0  0
  3  4  2  0  0  0
  3  5  1  0  0  0
  5  6  1  0  0  0
  5  8  1  0  0  0
  6  7  2  0  0  0
  8  9  2  0  0  0
  8 33  1  0  0  0
  9 10  1  0  0  0
  9 34  1  0  0  0
 10 11  1  0  0  0
 10 35  1  0  0  0
 11 12  2  0  0  0
 11 16  1  0  0  0
 13 14  1  0  0  0
 13 19  1  0  0  0
 14 15  2  0  0  0
 14 16  1  0  0  0
 16 17  2  0  0  0
 17 18  1  0  0  0
 17 36  1  0  0  0
 18 19  2  0  0  0
 18 20  1  0  0  0
 19 24  1  0  0  0
 20 21  2  0  0  0
 20 37  1  0  0  0
 21 22  1  0  0  0
 21 38  1  0  0  0
 22 23  1  0  0  0
 22 24  2  0  0  0
 23 25  1  0  0  0
 23 27  1  0  0  0
 24 39  1  0  0  0
 25 26  1  0  0  0
 25 40  1  0  0  0
 25 41  1  0  0  0
 26 42  1  0  0  0
 26 43  1  0  0  0
 26 44  1  0  0  0
 27 28  1  0  0  0
 27 45  1  0  0  0
 27 46  1  0  0  0
 28 47  1  0  0  0
 28 48  1  0  0  0
 28 49  1  0  0  0
M  END
$$$$
