MDF
  CCTOOLS-1004241119

 25 25  0  0  1  0  0  0  0  0999 V2000
    1.3560   -1.5280   -1.7940 N   0  0  0  0  0
    1.2050   -0.2110   -1.1610 C   0  0  0  0  0
   -0.1840   -0.0850   -0.5900 C   0  0  0  0  0
   -0.8700    1.1100   -0.7000 C   0  0  0  0  0
   -0.7720   -1.1660    0.0380 C   0  0  0  0  0
   -2.1490    1.2280   -0.1740 C   0  0  0  0  0
   -2.0490   -1.0520    0.5690 C   0  0  0  0  0
   -2.7390    0.1460    0.4610 C   0  0  0  0  0
   -2.8220    2.4030   -0.2830 O   0  0  0  0  0
   -2.6250   -2.1140    1.1900 O   0  0  0  0  0
    2.2180   -0.0650   -0.0550 C   0  0  0  0  0
    2.7320   -1.0460    0.4260 O   0  0  0  0  0
    2.5500    1.1560    0.3940 O   0  0  0  0  0
    3.5260    1.2960    1.4600 C   0  0  0  0  0
    2.3240   -1.6080   -2.0680 H   0  0  0  0  0
    1.2020   -2.2160   -1.0730 H   0  0  0  0  0
    1.3640    0.5700   -1.9050 H   0  0  0  0  0
   -0.4100    1.9520   -1.1940 H   0  0  0  0  0
   -0.2350   -2.0990    0.1220 H   0  0  0  0  0
   -3.7340    0.2360    0.8700 H   0  0  0  0  0
   -3.3180    2.3660   -1.1120 H   0  0  0  0  0
   -3.1010   -2.6110    0.5110 H   0  0  0  0  0
    3.1710    0.7750    2.3490 H   0  0  0  0  0
    4.4750    0.8660    1.1420 H   0  0  0  0  0
    3.6640    2.3530    1.6890 H   0  0  0  0  0
  1  2  1  0  0  0
  1 15  1  0  0  0
  1 16  1  0  0  0
  2  3  1  0  0  0
  2 11  1  0  0  0
  2 17  1  0  0  0
  3  4  2  0  0  0
  3  5  1  0  0  0
  4  6  1  0  0  0
  4 18  1  0  0  0
  5  7  2  0  0  0
  5 19  1  0  0  0
  6  8  2  0  0  0
  6  9  1  0  0  0
  7  8  1  0  0  0
  7 10  1  0  0  0
  8 20  1  0  0  0
  9 21  1  0  0  0
 10 22  1  0  0  0
 11 12  2  0  0  0
 11 13  1  0  0  0
 13 14  1  0  0  0
 14 23  1  0  0  0
 14 24  1  0  0  0
 14 25  1  0  0  0
M  END
$$$$
