MDN
  CCTOOLS-0919241034

 15 14  0  0  0  0  0  0  0  0999 V2000
    0.4090   -0.9060    2.8030 O   0  0  0  0  0
    0.0630   -0.0430    1.4880 P   0  0  0  0  0
    0.8670    1.1990    1.4880 O   0  0  0  0  0
   -1.5020    0.3300    1.4880 O   0  0  0  0  0
    0.4550   -1.0200    0.0000 C   0  0  0  0  0
    0.0630   -0.0430   -1.4880 P   0  0  0  0  0
    0.8670    1.1990   -1.4880 O   0  0  0  0  0
    0.4090   -0.9060   -2.8030 O   0  0  0  0  0
   -1.5020    0.3300   -1.4880 O   0  0  0  0  0
    0.1880   -0.3540    3.5650 H   0  0  0  0  0
   -1.9880   -0.5050    1.4880 H   0  0  0  0  0
    1.5150   -1.2730    0.0000 H   0  0  0  0  0
   -0.1360   -1.9350    0.0000 H   0  0  0  0  0
    0.1880   -0.3540   -3.5650 H   0  0  0  0  0
   -1.9880   -0.5050   -1.4880 H   0  0  0  0  0
  1  2  1  0  0  0
  1 10  1  0  0  0
  2  3  2  0  0  0
  2  4  1  0  0  0
  2  5  1  0  0  0
  4 11  1  0  0  0
  5  6  1  0  0  0
  5 12  1  0  0  0
  5 13  1  0  0  0
  6  7  2  0  0  0
  6  8  1  0  0  0
  6  9  1  0  0  0
  8 14  1  0  0  0
  9 15  1  0  0  0
M  END
$$$$
