ME3
  CCTOOLS-0919241034

 54 64  0  0  0  0  0  0  0  0999 V2000
  -21.6320  -34.2440   -6.5120 O   0  0  0  0  0
  -22.6730  -34.5870   -5.9380 C   0  0  0  0  0
  -23.3060  -35.7410   -6.2500 O   0  0  0  0  0
  -22.4240  -36.6940   -6.8410 C   0  0  0  0  0
  -23.1570  -38.0290   -7.0410 C   0  0  0  0  0
  -23.1930  -33.7340   -4.8560 C   0  0  0  0  0
  -22.3870  -32.6770   -4.4650 C   0  0  0  0  0
  -23.0280  -31.9650   -3.4350 C   0  0  0  0  0
  -24.2810  -32.5920   -3.2200 C   0  0  0  0  0
  -24.4050  -33.7200   -4.0700 C   0  0  0  0  0
  -22.5980  -34.0070   -2.7490 RU  0  0  0  0  0
  -20.7890  -34.3730   -2.7660 C   0  0  0  0  0
  -19.6940  -34.5220   -2.9110 O   0  0  0  0  0
  -22.5370  -33.6490   -0.6680 N   0  0  0  0  0
  -22.8980  -34.7290   -0.0030 C   0  0  0  0  0
  -23.2640  -35.9200   -0.6800 C   0  0  0  0  0
  -23.1930  -35.9150   -2.0630 N   0  0  0  0  0
  -23.6490  -37.0330    0.0920 C   0  0  0  0  0
  -24.0040  -38.2110   -0.6490 C   0  0  0  0  0
  -23.9350  -38.2040   -2.0350 C   0  0  0  0  0
  -23.5330  -37.0480   -2.7340 C   0  0  0  0  0
  -23.6530  -36.8410    1.5350 C   0  0  0  0  0
  -24.0190  -37.7810    2.5840 C   0  0  0  0  0
  -24.3950  -38.9140    2.4560 O   0  0  0  0  0
  -23.8790  -37.1270    3.8080 N   0  0  0  0  0
  -23.4460  -35.8160    3.6490 C   0  0  0  0  0
  -23.2410  -34.9940    4.5270 O   0  0  0  0  0
  -23.3080  -35.6480    2.1680 C   0  0  0  0  0
  -22.9010  -34.5440    1.4070 C   0  0  0  0  0
  -22.4790  -33.2080    1.5670 C   0  0  0  0  0
  -22.2520  -32.6870    0.2550 C   0  0  0  0  0
  -21.8350  -31.3780    0.0610 C   0  0  0  0  0
  -21.6080  -30.5990    1.1950 C   0  0  0  0  0
  -21.8310  -31.1230    2.4810 C   0  0  0  0  0
  -21.6170  -30.3360    3.5780 O   0  0  0  0  0
  -22.2620  -32.4120    2.6760 C   0  0  0  0  0
  -22.0800  -36.3170   -7.8150 H   0  0  0  0  0
  -21.5580  -36.8480   -6.1810 H   0  0  0  0  0
  -22.4720  -38.7590   -7.4970 H   0  0  0  0  0
  -23.5010  -38.4080   -6.0670 H   0  0  0  0  0
  -24.0230  -37.8760   -7.7020 H   0  0  0  0  0
  -21.3310  -32.5490   -4.7470 H   0  0  0  0  0
  -22.5690  -31.2030   -2.7880 H   0  0  0  0  0
  -24.9050  -32.4240   -2.3300 H   0  0  0  0  0
  -25.1260  -34.5450   -3.9730 H   0  0  0  0  0
  -20.8080  -34.8820   -1.8140 H   0  0  0  0  0
  -24.3240  -39.1010   -0.1280 H   0  0  0  0  0
  -24.1930  -39.0970   -2.5860 H   0  0  0  0  0
  -23.4950  -37.0620   -3.8130 H   0  0  0  0  0
  -24.0680  -37.5510    4.6940 H   0  0  0  0  0
  -21.6910  -30.9770   -0.9320 H   0  0  0  0  0
  -21.2570  -29.5830    1.0850 H   0  0  0  0  0
  -21.8100  -30.8310    4.3660 H   0  0  0  0  0
  -22.4270  -32.7950    3.6720 H   0  0  0  0  0
  1  2  2  0  0  0
  2  3  1  0  0  0
  2  6  1  0  0  0
  3  4  1  0  0  0
  4  5  1  0  0  0
  4 37  1  0  0  0
  4 38  1  0  0  0
  5 39  1  0  0  0
  5 40  1  0  0  0
  5 41  1  0  0  0
  6  7  1  0  0  0
  6 10  1  0  0  0
  6 11  1  0  0  0
  7  8  1  0  0  0
  7 11  1  0  0  0
  7 42  1  0  0  0
  8  9  1  0  0  0
  8 11  1  0  0  0
  8 43  1  0  0  0
  9 10  1  0  0  0
  9 11  1  0  0  0
  9 44  1  0  0  0
 10 11  1  0  0  0
 10 45  1  0  0  0
 11 12  1  0  0  0
 11 14  1  0  0  0
 11 17  1  0  0  0
 12 13  3  0  0  0
 12 46  1  0  0  0
 14 15  1  0  0  0
 14 31  1  0  0  0
 15 16  1  0  0  0
 15 29  2  0  0  0
 16 17  1  0  0  0
 16 18  2  0  0  0
 17 21  2  0  0  0
 18 19  1  0  0  0
 18 22  1  0  0  0
 19 20  2  0  0  0
 19 47  1  0  0  0
 20 21  1  0  0  0
 20 48  1  0  0  0
 21 49  1  0  0  0
 22 23  1  0  0  0
 22 28  2  0  0  0
 23 24  2  0  0  0
 23 25  1  0  0  0
 25 26  1  0  0  0
 25 50  1  0  0  0
 26 27  2  0  0  0
 26 28  1  0  0  0
 28 29  1  0  0  0
 29 30  1  0  0  0
 30 31  1  0  0  0
 30 36  2  0  0  0
 31 32  2  0  0  0
 32 33  1  0  0  0
 32 51  1  0  0  0
 33 34  2  0  0  0
 33 52  1  0  0  0
 34 35  1  0  0  0
 34 36  1  0  0  0
 35 53  1  0  0  0
 36 54  1  0  0  0
M  END
$$$$
