MEC
  CCTOOLS-0919241034

 16 15  0  0  0  0  0  0  0  0999 V2000
   -0.1880    0.0000   -2.9150 C   0  0  0  0  0
   -0.7470    0.0000   -1.5750 O   0  0  0  0  0
    0.0690    0.0000   -0.5040 C   0  0  0  0  0
    1.2740    0.0000   -0.6600 O   0  0  0  0  0
   -0.4490    0.0000    0.7390 N   0  0  0  0  0
    0.4390    0.0000    1.9030 C   0  0  0  0  0
   -0.3970    0.0000    3.1840 C   0  0  0  0  0
    0.4260   -0.8900   -3.0520 H   0  0  0  0  0
   -0.9960    0.0000   -3.6460 H   0  0  0  0  0
    0.4260    0.8900   -3.0520 H   0  0  0  0  0
   -1.4110    0.0000    0.8630 H   0  0  0  0  0
    1.0680    0.8900    1.8800 H   0  0  0  0  0
    1.0680   -0.8900    1.8800 H   0  0  0  0  0
    0.2630    0.0000    4.0500 H   0  0  0  0  0
   -1.0260    0.8900    3.2070 H   0  0  0  0  0
   -1.0260   -0.8900    3.2070 H   0  0  0  0  0
  1  2  1  0  0  0
  1  8  1  0  0  0
  1  9  1  0  0  0
  1 10  1  0  0  0
  2  3  1  0  0  0
  3  4  2  0  0  0
  3  5  1  0  0  0
  5  6  1  0  0  0
  5 11  1  0  0  0
  6  7  1  0  0  0
  6 12  1  0  0  0
  6 13  1  0  0  0
  7 14  1  0  0  0
  7 15  1  0  0  0
  7 16  1  0  0  0
M  END
$$$$
