MF4
  CCTOOLS-0919241034

  5  4  0  0  0  0  0  0  0  0999 V2000
    0.0000    0.0000    0.0000 MG  0  6  0  0  0
    0.0000   -1.4620   -1.0330 F   0  0  0  0  0
    0.0000    1.4620   -1.0330 F   0  0  0  0  0
   -1.4620    0.0000    1.0330 F   0  0  0  0  0
    1.4620    0.0000    1.0330 F   0  0  0  0  0
  1  2  1  0  0  0
  1  3  1  0  0  0
  1  4  1  0  0  0
  1  5  1  0  0  0
M  CHG  1   1  -2
M  END
$$$$
