MF5
  CCTOOLS-0919241034

 32 33  0  0  0  0  0  0  0  0999 V2000
    1.8310   -2.3690   -0.5920 F   0  0  0  0  0
    2.4670   -1.1990   -0.3630 C   0  0  0  0  0
    3.7710   -1.2000    0.1050 C   0  0  0  0  0
    4.4070   -2.3700    0.3320 F   0  0  0  0  0
    4.4230    0.0010    0.3390 C   0  0  0  0  0
    5.6950    0.0010    0.7950 F   0  0  0  0  0
    3.7700    1.2000    0.1050 C   0  0  0  0  0
    4.4050    2.3710    0.3330 F   0  0  0  0  0
    2.4660    1.1990   -0.3630 C   0  0  0  0  0
    1.8290    2.3680   -0.5920 F   0  0  0  0  0
    1.8170   -0.0010   -0.6020 C   0  0  0  0  0
    0.4010   -0.0010   -1.1170 C   0  0  0  0  0
   -0.5070    0.0010   -0.0140 O   0  0  0  0  0
   -1.8720    0.0010   -0.3910 N   0  0  0  0  0
   -2.7930    0.0020    0.5160 C   0  0  0  0  0
   -4.2170    0.0020    0.1230 C   0  0  0  0  0
   -4.5620   -0.0000   -1.2300 C   0  0  0  0  0
   -5.9000   -0.0010   -1.5820 C   0  0  0  0  0
   -6.8510    0.0010   -0.5720 C   0  0  0  0  0
   -6.4390    0.0030    0.7490 C   0  0  0  0  0
   -5.1600   -0.0020    1.0580 N   0  3  0  0  0
   -4.7660   -0.0050    2.4690 C   0  0  0  0  0
    0.2350    0.8880   -1.7250 H   0  0  0  0  0
    0.2350   -0.8920   -1.7220 H   0  0  0  0  0
   -2.5220    0.0040    1.5610 H   0  0  0  0  0
   -3.7950   -0.0010   -1.9900 H   0  0  0  0  0
   -6.1970   -0.0020   -2.6200 H   0  0  0  0  0
   -7.9040    0.0000   -0.8140 H   0  0  0  0  0
   -7.1780    0.0040    1.5370 H   0  0  0  0  0
   -4.6690    1.0220    2.8220 H   0  0  0  0  0
   -5.5240   -0.5210    3.0570 H   0  0  0  0  0
   -3.8100   -0.5180    2.5790 H   0  0  0  0  0
  1  2  1  0  0  0
  2  3  1  0  0  0
  2 11  2  0  0  0
  3  4  1  0  0  0
  3  5  2  0  0  0
  5  6  1  0  0  0
  5  7  1  0  0  0
  7  8  1  0  0  0
  7  9  2  0  0  0
  9 10  1  0  0  0
  9 11  1  0  0  0
 11 12  1  0  0  0
 12 13  1  0  0  0
 12 23  1  0  0  0
 12 24  1  0  0  0
 13 14  1  0  0  0
 14 15  2  0  0  0
 15 16  1  0  0  0
 15 25  1  0  0  0
 16 17  1  0  0  0
 16 21  2  0  0  0
 17 18  2  0  0  0
 17 26  1  0  0  0
 18 19  1  0  0  0
 18 27  1  0  0  0
 19 20  2  0  0  0
 19 28  1  0  0  0
 20 21  1  0  0  0
 20 29  1  0  0  0
 21 22  1  0  0  0
 22 30  1  0  0  0
 22 31  1  0  0  0
 22 32  1  0  0  0
M  CHG  1  21   1
M  END
$$$$
