MFB
  CCTOOLS-0919241034

 26 26  0  0  1  0  0  0  0  0999 V2000
    1.6880   -2.4990    2.4450 C   0  0  0  0  0
    0.5400   -3.0410    1.5900 C   0  0  0  0  0
   -0.2940   -1.8940    1.0160 C   0  0  0  0  0
    0.5970   -0.8570    0.3330 C   0  0  0  0  0
    1.7050   -0.4110    1.2920 C   0  0  0  0  0
    2.6770    0.5670    0.6420 C   0  0  0  0  0
    2.5200   -3.5740    2.8810 O   0  0  0  0  0
   -0.3080   -3.8540    2.3990 O   0  0  0  0  0
   -1.2380   -2.3960    0.0740 O   0  0  0  0  0
    1.1940   -1.4290   -0.8330 O   0  0  0  0  0
    2.4650   -1.5480    1.7190 O   0  0  0  0  0
    3.5960   -3.1030    3.6770 C   0  0  0  0  0
    1.3050   -2.0250    3.3570 H   0  0  0  0  0
    0.9150   -3.6760    0.7780 H   0  0  0  0  0
   -0.8690   -1.4150    1.8180 H   0  0  0  0  0
   -0.0010   -0.0000    0.0010 H   0  0  0  0  0
    1.2680    0.0710    2.1760 H   0  0  0  0  0
    2.9990    1.3260    1.3610 H   0  0  0  0  0
    3.5640    0.0420    0.2750 H   0  0  0  0  0
    2.2030    1.0740   -0.2040 H   0  0  0  0  0
   -1.2160   -3.6750    2.1110 H   0  0  0  0  0
   -0.7370   -2.6240   -0.7250 H   0  0  0  0  0
    1.7630   -2.1480   -0.5220 H   0  0  0  0  0
    3.2580   -2.9760    4.7090 H   0  0  0  0  0
    3.9550   -2.1500    3.2800 H   0  0  0  0  0
    4.4060   -3.8360    3.6490 H   0  0  0  0  0
  1  2  1  0  0  0
  1  7  1  0  0  0
  1 11  1  0  0  0
  1 13  1  0  0  0
  2  3  1  0  0  0
  2  8  1  0  0  0
  2 14  1  0  0  0
  3  4  1  0  0  0
  3  9  1  0  0  0
  3 15  1  0  0  0
  4  5  1  0  0  0
  4 10  1  0  0  0
  4 16  1  0  0  0
  5  6  1  0  0  0
  5 11  1  0  0  0
  5 17  1  0  0  0
  6 18  1  0  0  0
  6 19  1  0  0  0
  6 20  1  0  0  0
  7 12  1  0  0  0
  8 21  1  0  0  0
  9 22  1  0  0  0
 10 23  1  0  0  0
 12 24  1  0  0  0
 12 25  1  0  0  0
 12 26  1  0  0  0
M  END
$$$$
