MFU
  CCTOOLS-0919241034

 26 26  0  0  1  0  0  0  0  0999 V2000
   -0.8730   -0.6380    0.7920 C   0  0  0  0  0
   -1.0480   -0.5520   -0.7250 C   0  0  0  0  0
   -0.2210    0.6200   -1.2590 C   0  0  0  0  0
    1.2250    0.4580   -0.7790 C   0  0  0  0  0
    1.2300    0.2960    0.7420 C   0  0  0  0  0
    2.6720    0.1670    1.2340 C   0  0  0  0  0
   -1.2940    0.5890    1.3890 O   0  0  0  0  0
   -2.4270   -0.3450   -1.0360 O   0  0  0  0  0
   -0.2540    0.6240   -2.6880 O   0  0  0  0  0
    1.8050   -0.6980   -1.3850 O   0  0  0  0  0
    0.4980   -0.8720    1.1060 O   0  0  0  0  0
   -1.1100    0.4470    2.7990 C   0  0  0  0  0
   -1.4780   -1.4570    1.1810 H   0  0  0  0  0
   -0.7050   -1.4790   -1.1850 H   0  0  0  0  0
   -0.6290    1.5580   -0.8820 H   0  0  0  0  0
    1.8010    1.3410   -1.0540 H   0  0  0  0  0
    0.7670    1.1700    1.2010 H   0  0  0  0  0
    2.6780    0.0570    2.3180 H   0  0  0  0  0
    3.1350   -0.7080    0.7770 H   0  0  0  0  0
    3.2320    1.0600    0.9560 H   0  0  0  0  0
   -2.9100   -1.1050   -0.6830 H   0  0  0  0  0
   -1.1800    0.7280   -2.9460 H   0  0  0  0  0
    2.7100   -0.7650   -1.0500 H   0  0  0  0  0
   -1.4200    1.3640    3.3000 H   0  0  0  0  0
   -1.7130   -0.3850    3.1610 H   0  0  0  0  0
   -0.0590    0.2550    3.0110 H   0  0  0  0  0
  1  2  1  0  0  0
  1  7  1  0  0  0
  1 11  1  0  0  0
  1 13  1  0  0  0
  2  3  1  0  0  0
  2  8  1  0  0  0
  2 14  1  0  0  0
  3  4  1  0  0  0
  3  9  1  0  0  0
  3 15  1  0  0  0
  4  5  1  0  0  0
  4 10  1  0  0  0
  4 16  1  0  0  0
  5  6  1  0  0  0
  5 11  1  0  0  0
  5 17  1  0  0  0
  6 18  1  0  0  0
  6 19  1  0  0  0
  6 20  1  0  0  0
  7 12  1  0  0  0
  8 21  1  0  0  0
  9 22  1  0  0  0
 10 23  1  0  0  0
 12 24  1  0  0  0
 12 25  1  0  0  0
 12 26  1  0  0  0
M  END
$$$$
