MGR
  CCTOOLS-0919241034

 50 52  0  0  0  0  0  0  0  0999 V2000
   -0.0230    0.7810    0.0210 C   0  0  0  0  0
   -0.0650    2.2520    0.0600 C   0  0  0  0  0
   -0.6160    2.9110    1.1650 C   0  0  0  0  0
   -0.6520    4.2880    1.1940 C   0  0  0  0  0
   -0.1440    5.0200    0.1340 C   0  0  0  0  0
    0.4030    4.3760   -0.9630 C   0  0  0  0  0
    0.4520    2.9990   -1.0050 C   0  0  0  0  0
    1.2250    0.1070    0.0260 C   0  0  0  0  0
    2.1100    0.2550   -1.0580 C   0  0  0  0  0
    3.3070   -0.3920   -1.0510 C   0  0  0  0  0
    3.6590   -1.2070    0.0360 C   0  0  0  0  0
    2.7750   -1.3600    1.1160 C   0  0  0  0  0
    1.5800   -0.7100    1.1150 C   0  0  0  0  0
   -1.2300    0.0380   -0.0220 C   0  0  0  0  0
   -2.4680    0.7060   -0.0270 C   0  0  0  0  0
   -3.6250   -0.0090   -0.0680 C   0  0  0  0  0
   -3.5840   -1.4110   -0.1060 C   0  0  0  0  0
   -2.3500   -2.0790   -0.1010 C   0  0  0  0  0
   -1.1900   -1.3680   -0.0650 C   0  0  0  0  0
    5.7760   -1.6990   -1.0880 C   0  0  0  0  0
    5.2240   -2.7040    1.1750 C   0  0  0  0  0
   -6.0290   -1.4370   -0.0190 C   0  0  0  0  0
   -4.7000   -3.5780   -0.3180 C   0  0  0  0  0
    4.8550   -1.8530    0.0410 N   0  0  0  0  0
   -4.7410   -2.1240   -0.1460 N   0  3  0  0  0
   -1.0130    2.3410    1.9930 H   0  0  0  0  0
   -1.0780    4.7980    2.0460 H   0  0  0  0  0
   -0.1750    6.0990    0.1630 H   0  0  0  0  0
    0.7960    4.9540   -1.7860 H   0  0  0  0  0
    0.8790    2.4980   -1.8610 H   0  0  0  0  0
    1.8400    0.8820   -1.8950 H   0  0  0  0  0
    3.9860   -0.2790   -1.8820 H   0  0  0  0  0
    3.0480   -1.9870    1.9510 H   0  0  0  0  0
    0.9020   -0.8250    1.9480 H   0  0  0  0  0
   -2.5010    1.7850    0.0030 H   0  0  0  0  0
   -4.5760    0.5030   -0.0720 H   0  0  0  0  0
   -2.3200   -3.1580   -0.1300 H   0  0  0  0  0
   -0.2410   -1.8820   -0.0620 H   0  0  0  0  0
    6.6750   -2.2870   -0.9070 H   0  0  0  0  0
    5.2920   -2.0460   -2.0010 H   0  0  0  0  0
    6.0440   -0.6480   -1.1970 H   0  0  0  0  0
    6.2100   -3.1340    1.0020 H   0  0  0  0  0
    5.2440   -2.1050    2.0870 H   0  0  0  0  0
    4.4920   -3.5040    1.2820 H   0  0  0  0  0
   -5.8650   -0.3600    0.0080 H   0  0  0  0  0
   -6.6600   -1.6870   -0.8720 H   0  0  0  0  0
   -6.5200   -1.7530    0.9010 H   0  0  0  0  0
   -4.1450   -4.0250    0.5060 H   0  0  0  0  0
   -5.7170   -3.9710   -0.3260 H   0  0  0  0  0
   -4.2100   -3.8190   -1.2610 H   0  0  0  0  0
  1  2  1  0  0  0
  1  8  1  0  0  0
  1 14  2  0  0  0
  2  3  2  0  0  0
  2  7  1  0  0  0
  3  4  1  0  0  0
  3 26  1  0  0  0
  4  5  2  0  0  0
  4 27  1  0  0  0
  5  6  1  0  0  0
  5 28  1  0  0  0
  6  7  2  0  0  0
  6 29  1  0  0  0
  7 30  1  0  0  0
  8  9  2  0  0  0
  8 13  1  0  0  0
  9 10  1  0  0  0
  9 31  1  0  0  0
 10 11  2  0  0  0
 10 32  1  0  0  0
 11 12  1  0  0  0
 11 24  1  0  0  0
 12 13  2  0  0  0
 12 33  1  0  0  0
 13 34  1  0  0  0
 14 15  1  0  0  0
 14 19  1  0  0  0
 15 16  2  0  0  0
 15 35  1  0  0  0
 16 17  1  0  0  0
 16 36  1  0  0  0
 17 18  1  0  0  0
 17 25  2  0  0  0
 18 19  2  0  0  0
 18 37  1  0  0  0
 19 38  1  0  0  0
 20 24  1  0  0  0
 20 39  1  0  0  0
 20 40  1  0  0  0
 20 41  1  0  0  0
 21 24  1  0  0  0
 21 42  1  0  0  0
 21 43  1  0  0  0
 21 44  1  0  0  0
 22 25  1  0  0  0
 22 45  1  0  0  0
 22 46  1  0  0  0
 22 47  1  0  0  0
 23 25  1  0  0  0
 23 48  1  0  0  0
 23 49  1  0  0  0
 23 50  1  0  0  0
M  CHG  1  25   1
M  END
$$$$
