MHB
  CCTOOLS-0919241034

 31 32  0  0  0  0  0  0  0  0999 V2000
    0.6180   -0.0000   -1.9570 C   0  0  0  0  0
   -0.2460   -0.0050   -3.0710 C   0  0  0  0  0
    0.2900   -0.0020   -4.3580 C   0  0  0  0  0
    1.6590   -0.0070   -4.5340 C   0  0  0  0  0
    2.5090   -0.0080   -3.4400 C   0  0  0  0  0
    1.9990   -0.0040   -2.1580 C   0  0  0  0  0
    0.3930    0.0060    1.5890 C   0  0  0  0  0
    1.2540    0.0060    2.6920 C   0  0  0  0  0
    0.7340    0.0100    3.9670 C   0  0  0  0  0
   -0.6420    0.0090    4.1590 C   0  0  0  0  0
   -1.5010    0.0160    3.0660 C   0  0  0  0  0
   -0.9910    0.0110    1.7870 C   0  0  0  0  0
   -1.7080   -0.0000   -2.8760 C   0  0  0  0  0
    1.6600    0.0090    5.1570 C   0  0  0  0  0
    0.1080    0.0030   -0.6910 N   0  0  0  0  0
    0.9030    0.0020    0.3240 N   0  0  0  0  0
   -2.1710   -0.0020   -1.7530 O   0  0  0  0  0
   -2.5300    0.0070   -3.9440 O   0  0  0  0  0
   -1.1490    0.0130    5.4180 O   0  0  0  0  0
   -0.3640   -0.0010   -5.2160 H   0  0  0  0  0
    2.0710   -0.0100   -5.5330 H   0  0  0  0  0
    3.5780   -0.0120   -3.5920 H   0  0  0  0  0
    2.6690   -0.0050   -1.3110 H   0  0  0  0  0
    2.3240    0.0020    2.5440 H   0  0  0  0  0
   -2.5700    0.0200    3.2210 H   0  0  0  0  0
   -1.6590    0.0120    0.9390 H   0  0  0  0  0
    1.8860    1.0370    5.4410 H   0  0  0  0  0
    1.1790   -0.5000    5.9910 H   0  0  0  0  0
    2.5830   -0.5070    4.8980 H   0  0  0  0  0
   -3.4880    0.0110   -3.8160 H   0  0  0  0  0
   -1.2600   -0.9110    5.6780 H   0  0  0  0  0
  1  2  1  0  0  0
  1  6  2  0  0  0
  1 15  1  0  0  0
  2  3  2  0  0  0
  2 13  1  0  0  0
  3  4  1  0  0  0
  3 20  1  0  0  0
  4  5  2  0  0  0
  4 21  1  0  0  0
  5  6  1  0  0  0
  5 22  1  0  0  0
  6 23  1  0  0  0
  7  8  1  0  0  0
  7 12  2  0  0  0
  7 16  1  0  0  0
  8  9  2  0  0  0
  8 24  1  0  0  0
  9 10  1  0  0  0
  9 14  1  0  0  0
 10 11  2  0  0  0
 10 19  1  0  0  0
 11 12  1  0  0  0
 11 25  1  0  0  0
 12 26  1  0  0  0
 13 17  2  0  0  0
 13 18  1  0  0  0
 14 27  1  0  0  0
 14 28  1  0  0  0
 14 29  1  0  0  0
 15 16  2  0  0  0
 18 30  1  0  0  0
 19 31  1  0  0  0
M  END
$$$$
