MHI
  CCTOOLS-0919241034

 53 52  0  0  1  0  0  0  0  0999 V2000
   -2.7700    3.7000    0.8770 C   0  0  0  0  0
   -5.1940    4.0260    0.7390 N   0  0  0  0  0
   -5.0650    1.4270    1.2830 O   0  0  0  0  0
   -4.0650    3.2640    0.1880 C   0  0  0  0  0
   -3.6270    0.8820   -0.3170 N   0  0  0  0  0
   -5.6670   -0.2150   -1.5430 O   0  0  0  0  0
   -4.2890    1.7920    0.4250 C   0  0  0  0  0
    0.9770   -1.5630    0.5010 N   0  0  0  0  0
   -5.4430   -2.2870   -0.8070 O   0  0  0  0  0
   -3.8450   -0.5480   -0.0870 C   0  0  0  0  0
    3.6810    2.7180   -0.2610 N   0  0  0  0  0
   -0.2900   -2.5030   -1.0590 O   0  0  0  0  0
   -5.0520   -1.0040   -0.8660 C   0  0  0  0  0
    1.2750   -3.9780    1.4750 O   0  0  0  0  0
   -2.6140   -1.3320   -0.5480 C   0  0  0  0  0
    3.1550   -4.5360    0.4580 O   0  0  0  0  0
   -1.4150   -0.9590    0.3260 C   0  0  0  0  0
    6.1420    3.4530    0.4160 O   0  0  0  0  0
   -0.2030   -1.7310   -0.1280 C   0  0  0  0  0
    7.2210    2.1810   -1.0340 O   0  0  0  0  0
    2.1550   -2.3140    0.0590 C   0  0  0  0  0
    2.1620   -3.6700    0.7160 C   0  0  0  0  0
    3.4220   -1.5510    0.4510 C   0  0  0  0  0
    3.4770   -0.2260   -0.3130 C   0  0  0  0  0
    4.7430    0.5370    0.0790 C   0  0  0  0  0
    6.1030    2.5570   -0.3940 C   0  0  0  0  0
    4.7980    1.8620   -0.6850 C   0  0  0  0  0
   -2.8480    3.5120    1.9480 H   0  0  0  0  0
   -1.9330    3.1350    0.4680 H   0  0  0  0  0
   -2.6090    4.7640    0.7060 H   0  0  0  0  0
   -3.9880    3.4520   -0.8830 H   0  0  0  0  0
   -6.0510    3.8020    0.2560 H   0  0  0  0  0
   -5.2860    3.8680    1.7310 H   0  0  0  0  0
   -3.0070    1.1740   -1.0030 H   0  0  0  0  0
   -4.0100   -0.7240    0.9760 H   0  0  0  0  0
    1.0460   -0.9460    1.2450 H   0  0  0  0  0
    2.1240   -2.4350   -1.0240 H   0  0  0  0  0
   -6.2230   -2.5320   -1.3230 H   0  0  0  0  0
   -2.8100   -2.4000   -0.4600 H   0  0  0  0  0
   -2.3960   -1.0870   -1.5880 H   0  0  0  0  0
    2.7950    2.3020   -0.5040 H   0  0  0  0  0
    3.7310    2.9120    0.7280 H   0  0  0  0  0
    4.7200    1.6680   -1.7550 H   0  0  0  0  0
   -1.2190    0.1090    0.2380 H   0  0  0  0  0
   -1.6330   -1.2040    1.3660 H   0  0  0  0  0
    3.1170   -5.3930    0.9030 H   0  0  0  0  0
    8.0340    2.6560   -0.8130 H   0  0  0  0  0
    3.4100   -1.3520    1.5230 H   0  0  0  0  0
    4.2990   -2.1490    0.2020 H   0  0  0  0  0
    3.4890   -0.4250   -1.3850 H   0  0  0  0  0
    2.6000    0.3730   -0.0640 H   0  0  0  0  0
    4.7310    0.7360    1.1500 H   0  0  0  0  0
    5.6200   -0.0620   -0.1700 H   0  0  0  0  0
  1  4  1  0  0  0
  1 28  1  0  0  0
  1 29  1  0  0  0
  1 30  1  0  0  0
  2  4  1  0  0  0
  2 32  1  0  0  0
  2 33  1  0  0  0
  3  7  2  0  0  0
  4  7  1  0  0  0
  4 31  1  0  0  0
  5  7  1  0  0  0
  5 10  1  0  0  0
  5 34  1  0  0  0
  6 13  2  0  0  0
  8 19  1  0  0  0
  8 21  1  0  0  0
  8 36  1  0  0  0
  9 13  1  0  0  0
  9 38  1  0  0  0
 10 13  1  0  0  0
 10 15  1  0  0  0
 10 35  1  0  0  0
 11 27  1  0  0  0
 11 41  1  0  0  0
 11 42  1  0  0  0
 12 19  2  0  0  0
 14 22  2  0  0  0
 15 17  1  0  0  0
 15 39  1  0  0  0
 15 40  1  0  0  0
 16 22  1  0  0  0
 16 46  1  0  0  0
 17 19  1  0  0  0
 17 44  1  0  0  0
 17 45  1  0  0  0
 18 26  2  0  0  0
 20 26  1  0  0  0
 20 47  1  0  0  0
 21 22  1  0  0  0
 21 23  1  0  0  0
 21 37  1  0  0  0
 23 24  1  0  0  0
 23 48  1  0  0  0
 23 49  1  0  0  0
 24 25  1  0  0  0
 24 50  1  0  0  0
 24 51  1  0  0  0
 25 27  1  0  0  0
 25 52  1  0  0  0
 25 53  1  0  0  0
 26 27  1  0  0  0
 27 43  1  0  0  0
M  END
$$$$
