MHO
  CCTOOLS-1004241119

 21 20  0  0  1  0  0  0  0  0999 V2000
    1.6500    1.8880    0.0970 N   0  0  0  0  0
    1.5260    0.4760    0.4820 C   0  0  0  0  0
    0.2830   -0.1250   -0.1760 C   0  0  0  0  0
   -0.9690    0.5570    0.3800 C   0  0  0  0  0
   -2.4430   -0.1560   -0.4010 S   0  0  0  0  0
   -3.8000    0.7650    0.3730 C   0  0  0  0  0
    2.7500   -0.2770    0.0270 C   0  0  0  0  0
    3.4500    0.1780   -0.8450 O   0  0  0  0  0
    3.0610   -1.4550    0.5920 O   0  0  0  0  0
   -2.5450   -1.5300   -0.0550 O   0  0  0  0  0
    1.7350    1.9840   -0.9030 H   0  0  0  0  0
    0.8720    2.4280    0.4470 H   0  0  0  0  0
    1.4360    0.4010    1.5660 H   0  0  0  0  0
    0.3320    0.0290   -1.2540 H   0  0  0  0  0
    0.2400   -1.1930    0.0360 H   0  0  0  0  0
   -1.0180    0.4030    1.4570 H   0  0  0  0  0
   -0.9250    1.6250    0.1670 H   0  0  0  0  0
   -3.6860    1.8280    0.1610 H   0  0  0  0  0
   -4.7520    0.4150   -0.0270 H   0  0  0  0  0
   -3.7790    0.6060    1.4510 H   0  0  0  0  0
    3.8550   -1.9010    0.2670 H   0  0  0  0  0
  1  2  1  0  0  0
  1 11  1  0  0  0
  1 12  1  0  0  0
  2  3  1  0  0  0
  2  7  1  0  0  0
  2 13  1  0  0  0
  3  4  1  0  0  0
  3 14  1  0  0  0
  3 15  1  0  0  0
  4  5  1  0  0  0
  4 16  1  0  0  0
  4 17  1  0  0  0
  5  6  1  0  0  0
  5 10  2  0  0  0
  6 18  1  0  0  0
  6 19  1  0  0  0
  6 20  1  0  0  0
  7  8  2  0  0  0
  7  9  1  0  0  0
  9 21  1  0  0  0
M  END
$$$$
