MI2
  CCTOOLS-0919241034

 34 36  0  0  0  0  0  0  0  0999 V2000
   -1.0040    0.4350   -0.0740 C   0  0  0  0  0
   -0.7810   -0.8740    0.4000 C   0  0  0  0  0
    0.5800   -1.0480    0.5000 N   0  0  0  0  0
    1.2290    0.1000    0.1070 C   0  0  0  0  0
    0.3170    1.0390   -0.2480 C   0  0  0  0  0
    2.6960    0.2840    0.0810 C   0  0  0  0  0
    3.2650    1.4490    0.5980 C   0  0  0  0  0
    4.6350    1.6140    0.5710 C   0  0  0  0  0
    5.4440    0.6260    0.0380 C   0  0  0  0  0
    4.8860   -0.5330   -0.4700 C   0  0  0  0  0
    3.5180   -0.7110   -0.4490 C   0  0  0  0  0
    2.9120   -1.9750   -1.0040 C   0  0  0  0  0
   -1.8670   -1.7030    0.6680 C   0  0  0  0  0
   -3.1400   -1.2520    0.4720 C   0  0  0  0  0
   -3.3750    0.0460    0.0010 C   0  0  0  0  0
   -2.3070    0.8910   -0.2730 C   0  0  0  0  0
   -4.7630    0.5170   -0.2050 C   0  0  0  0  0
   -5.8230   -0.3210    0.0660 N   0  0  0  0  0
   -4.9820    1.7240   -0.6430 N   0  0  0  0  0
    1.0170   -1.8590    0.8030 H   0  0  0  0  0
    0.5260    2.0400   -0.5950 H   0  0  0  0  0
    2.6350    2.2200    1.0150 H   0  0  0  0  0
    5.0760    2.5170    0.9670 H   0  0  0  0  0
    6.5150    0.7600    0.0200 H   0  0  0  0  0
    5.5230   -1.3010   -0.8850 H   0  0  0  0  0
    2.7490   -2.6860   -0.1940 H   0  0  0  0  0
    1.9590   -1.7420   -1.4800 H   0  0  0  0  0
    3.5890   -2.4100   -1.7390 H   0  0  0  0  0
   -1.7020   -2.7060    1.0310 H   0  0  0  0  0
   -3.9760   -1.9030    0.6820 H   0  0  0  0  0
   -2.4840    1.8920   -0.6370 H   0  0  0  0  0
   -6.7320   -0.0120   -0.0690 H   0  0  0  0  0
    0.0000    0.0000    0.0000 H   0  0  0  0  0
   -5.8910    2.0340   -0.7790 H   0  0  0  0  0
  1  2  2  0  0  0
  1  5  1  0  0  0
  1 16  1  0  0  0
  2  3  1  0  0  0
  2 13  1  0  0  0
  3  4  1  0  0  0
  3 20  1  0  0  0
  4  5  2  0  0  0
  4  6  1  0  0  0
  5 21  1  0  0  0
  6  7  1  0  0  0
  6 11  2  0  0  0
  7  8  2  0  0  0
  7 22  1  0  0  0
  8  9  1  0  0  0
  8 23  1  0  0  0
  9 10  2  0  0  0
  9 24  1  0  0  0
 10 11  1  0  0  0
 10 25  1  0  0  0
 11 12  1  0  0  0
 12 26  1  0  0  0
 12 27  1  0  0  0
 12 28  1  0  0  0
 13 14  2  0  0  0
 13 29  1  0  0  0
 14 15  1  0  0  0
 14 30  1  0  0  0
 15 16  2  0  0  0
 15 17  1  0  0  0
 16 31  1  0  0  0
 17 18  2  0  0  0
 17 19  1  0  0  0
 18 32  1  0  0  0
 19 33  1  0  0  0
 19 34  1  0  0  0
M  END
$$$$
