MIB
  CCTOOLS-0919241034

 28 29  0  0  0  0  0  0  0  0999 V2000
    3.9830   -1.4460    0.0000 O   0  0  0  0  0
    3.8640   -0.2360    0.0000 C   0  0  0  0  0
    5.0900    0.6410    0.0000 C   0  0  0  0  0
    2.5880    0.3440    0.0000 C   0  0  0  0  0
    1.4810   -0.4480    0.0000 C   0  0  0  0  0
    0.1900    0.1380    0.0000 C   0  0  0  0  0
   -0.1070    1.4850    0.0000 C   0  0  0  0  0
   -1.1050   -0.5700   -0.0010 C   0  0  0  0  0
   -1.4510    1.6510   -0.0010 N   0  0  0  0  0
   -2.1310    2.9490   -0.0010 C   0  0  0  0  0
   -2.0910    0.4280    0.0050 C   0  0  0  0  0
   -1.4690   -1.9140    0.0000 C   0  0  0  0  0
   -3.4330    0.0600   -0.0020 C   0  0  0  0  0
   -2.8040   -2.2580    0.0000 C   0  0  0  0  0
   -3.7800   -1.2740   -0.0010 C   0  0  0  0  0
    5.3860    0.8520    1.0280 H   0  0  0  0  0
    5.9040    0.1280   -0.5140 H   0  0  0  0  0
    4.8680    1.5760   -0.5140 H   0  0  0  0  0
    2.4830    1.4190    0.0000 H   0  0  0  0  0
    1.5860   -1.5230    0.0000 H   0  0  0  0  0
    0.6200    2.2840    0.0000 H   0  0  0  0  0
   -2.3000    3.2700   -1.0280 H   0  0  0  0  0
   -3.0880    2.8570    0.5130 H   0  0  0  0  0
   -1.5120    3.6840    0.5130 H   0  0  0  0  0
   -0.7100   -2.6820   -0.0010 H   0  0  0  0  0
   -4.2010    0.8190   -0.0020 H   0  0  0  0  0
   -3.0900   -3.3000    0.0000 H   0  0  0  0  0
   -4.8230   -1.5550   -0.0010 H   0  0  0  0  0
  1  2  2  0  0  0
  2  3  1  0  0  0
  2  4  1  0  0  0
  3 16  1  0  0  0
  3 17  1  0  0  0
  3 18  1  0  0  0
  4  5  2  0  0  0
  4 19  1  0  0  0
  5  6  1  0  0  0
  5 20  1  0  0  0
  6  7  2  0  0  0
  6  8  1  0  0  0
  7  9  1  0  0  0
  7 21  1  0  0  0
  8 11  1  0  0  0
  8 12  2  0  0  0
  9 10  1  0  0  0
  9 11  1  0  0  0
 10 22  1  0  0  0
 10 23  1  0  0  0
 10 24  1  0  0  0
 11 13  2  0  0  0
 12 14  1  0  0  0
 12 25  1  0  0  0
 13 15  1  0  0  0
 13 26  1  0  0  0
 14 15  2  0  0  0
 14 27  1  0  0  0
 15 28  1  0  0  0
M  END
$$$$
