MLC
  CCTOOLS-0919241035

 92 94  0  0  1  0  0  0  0  0999 V2000
    3.7240    0.6640   -4.5520 C   0  0  0  0  0
    3.3780    0.8190   -5.8610 N   0  0  0  0  0
    4.5030    1.2160   -6.5390 C   0  0  0  0  0
    5.5260    1.2980   -5.5790 C   0  0  0  0  0
    4.9840    0.9450   -4.3880 N   0  0  0  0  0
    4.7780    1.5220   -7.8030 N   0  0  0  0  0
    5.9930    1.8870   -8.1550 C   0  0  0  0  0
    6.9870    1.9730   -7.2900 N   0  0  0  0  0
    6.8050    1.6920   -6.0040 C   0  0  0  0  0
    7.8530    1.7840   -5.1040 N   0  0  0  0  0
    2.0510    0.5980   -6.4400 C   0  0  0  0  0
    1.8550   -0.8940   -6.8100 C   0  0  0  0  0
    2.3630   -1.1650   -8.1180 O   0  0  0  0  0
    0.3110   -1.0380   -6.7760 C   0  0  0  0  0
   -0.2290   -0.9360   -8.0950 O   0  0  0  0  0
   -0.1540    0.1420   -5.9010 C   0  0  0  0  0
    1.0210    0.8380   -5.4570 O   0  0  0  0  0
   -0.9360   -0.3810   -4.6950 C   0  0  0  0  0
   -1.3580    0.7190   -3.8870 O   0  0  0  0  0
   -2.1700    0.0980   -2.6430 P   0  0  0  0  0
   -1.2840   -0.8060   -1.8770 O   0  0  0  0  0
   -3.4390   -0.7280   -3.1890 O   0  0  0  0  0
   -2.6770    1.2890   -1.6860 O   0  0  0  0  0
   -3.4770    0.6000   -0.4700 P   0  0  0  0  0
   -2.5710   -0.3120    0.2610 O   0  0  0  0  0
   -4.7240   -0.2340   -1.0530 O   0  0  0  0  0
   -4.0160    1.7390    0.5310 O   0  0  0  0  0
   -4.7130    1.0680    1.5830 C   0  0  0  0  0
   -5.2530    2.1000    2.5760 C   0  0  0  0  0
   -5.9990    1.3810    3.7020 C   0  0  0  0  0
   -4.0890    2.9000    3.1640 C   0  0  0  0  0
   -6.2110    3.0490    1.8540 C   0  0  0  0  0
   -7.1650    0.7470    3.1720 O   0  0  0  0  0
   -5.0980    0.3430    4.3190 C   0  0  0  0  0
   -5.3190   -0.8350    4.1370 O   0  0  0  0  0
   -4.0480    0.7240    5.0730 N   0  0  0  0  0
   -3.2200   -0.2840    5.7390 C   0  0  0  0  0
   -2.1050    0.4090    6.5230 C   0  0  0  0  0
   -1.2530   -0.6280    7.2080 C   0  0  0  0  0
   -1.5130   -1.8060    7.0820 O   0  0  0  0  0
   -0.2030   -0.2470    7.9620 N   0  0  0  0  0
    0.6250   -1.2550    8.6280 C   0  0  0  0  0
    1.7400   -0.5620    9.4130 C   0  0  0  0  0
    2.7630   -1.8080   10.2360 S   0  0  0  0  0
   -1.0280   -2.3050   -8.3770 P   0  0  0  0  0
   -1.6680   -2.2590   -9.8540 O   0  0  0  0  0
   -0.0140   -3.5500   -8.2700 O   0  0  0  0  0
   -2.1080   -2.4610   -7.3760 O   0  0  0  0  0
    3.8980   -0.7920   11.0170 C   0  0  0  0  0
    4.9940   -1.3940   11.8580 C   0  0  0  0  0
    5.8510   -0.2930   12.4300 C   0  0  0  0  0
    3.8200    0.4120   10.8930 O   0  0  0  0  0
    6.8950   -0.5950   13.2160 O   0  0  0  0  0
    5.5970    0.8600   12.1790 O   0  0  0  0  0
    3.0510    0.3530   -3.7660 H   0  0  0  0  0
    6.1840    2.1250   -9.1910 H   0  0  0  0  0
    8.7320    2.0580   -5.4100 H   0  0  0  0  0
    7.7080    1.5760   -4.1680 H   0  0  0  0  0
    1.9030    1.2320   -7.3130 H   0  0  0  0  0
    2.3240   -1.5430   -6.0700 H   0  0  0  0  0
    3.3100   -0.9690   -8.0970 H   0  0  0  0  0
    0.0260   -1.9860   -6.3200 H   0  0  0  0  0
   -0.7830    0.8120   -6.4880 H   0  0  0  0  0
   -0.2980   -1.0400   -4.1070 H   0  0  0  0  0
   -1.8100   -0.9340   -5.0410 H   0  0  0  0  0
   -3.9890   -0.1030   -3.6810 H   0  0  0  0  0
   -5.2880    0.3950   -1.5210 H   0  0  0  0  0
   -4.0300    0.3920    2.0970 H   0  0  0  0  0
   -5.5420    0.4990    1.1640 H   0  0  0  0  0
   -6.2940    2.1050    4.4620 H   0  0  0  0  0
   -3.3450    2.2140    3.5700 H   0  0  0  0  0
   -3.6340    3.5080    2.3830 H   0  0  0  0  0
   -4.4590    3.5470    3.9600 H   0  0  0  0  0
   -7.0740    2.4900    1.4930 H   0  0  0  0  0
   -6.5430    3.8240    2.5440 H   0  0  0  0  0
   -5.6980    3.5100    1.0100 H   0  0  0  0  0
   -6.8610    0.1160    2.5050 H   0  0  0  0  0
   -3.8400    1.6660    5.1740 H   0  0  0  0  0
   -3.8370   -0.8660    6.4230 H   0  0  0  0  0
   -2.7820   -0.9450    4.9910 H   0  0  0  0  0
   -1.4870    0.9910    5.8390 H   0  0  0  0  0
   -2.5430    1.0700    7.2710 H   0  0  0  0  0
    0.0040    0.6940    8.0640 H   0  0  0  0  0
    0.0070   -1.8380    9.3120 H   0  0  0  0  0
    1.0630   -1.9170    7.8810 H   0  0  0  0  0
    2.3570    0.0200    8.7290 H   0  0  0  0  0
    1.3020    0.0990   10.1600 H   0  0  0  0  0
   -2.1360   -3.0950   -9.9820 H   0  0  0  0  0
    0.6710   -3.4100   -8.9360 H   0  0  0  0  0
    4.5530   -1.9700   12.6720 H   0  0  0  0  0
    5.6080   -2.0490   11.2410 H   0  0  0  0  0
    7.4450    0.1100   13.5830 H   0  0  0  0  0
  1  2  1  0  0  0
  1  5  2  0  0  0
  1 55  1  0  0  0
  2  3  1  0  0  0
  2 11  1  0  0  0
  3  4  1  0  0  0
  3  6  2  0  0  0
  4  5  1  0  0  0
  4  9  2  0  0  0
  6  7  1  0  0  0
  7  8  2  0  0  0
  7 56  1  0  0  0
  8  9  1  0  0  0
  9 10  1  0  0  0
 10 57  1  0  0  0
 10 58  1  0  0  0
 11 12  1  0  0  0
 11 17  1  0  0  0
 11 59  1  0  0  0
 12 13  1  0  0  0
 12 14  1  0  0  0
 12 60  1  0  0  0
 13 61  1  0  0  0
 14 15  1  0  0  0
 14 16  1  0  0  0
 14 62  1  0  0  0
 15 45  1  0  0  0
 16 17  1  0  0  0
 16 18  1  0  0  0
 16 63  1  0  0  0
 18 19  1  0  0  0
 18 64  1  0  0  0
 18 65  1  0  0  0
 19 20  1  0  0  0
 20 21  2  0  0  0
 20 22  1  0  0  0
 20 23  1  0  0  0
 22 66  1  0  0  0
 23 24  1  0  0  0
 24 25  2  0  0  0
 24 26  1  0  0  0
 24 27  1  0  0  0
 26 67  1  0  0  0
 27 28  1  0  0  0
 28 29  1  0  0  0
 28 68  1  0  0  0
 28 69  1  0  0  0
 29 30  1  0  0  0
 29 31  1  0  0  0
 29 32  1  0  0  0
 30 33  1  0  0  0
 30 34  1  0  0  0
 30 70  1  0  0  0
 31 71  1  0  0  0
 31 72  1  0  0  0
 31 73  1  0  0  0
 32 74  1  0  0  0
 32 75  1  0  0  0
 32 76  1  0  0  0
 33 77  1  0  0  0
 34 35  2  0  0  0
 34 36  1  0  0  0
 36 37  1  0  0  0
 36 78  1  0  0  0
 37 38  1  0  0  0
 37 79  1  0  0  0
 37 80  1  0  0  0
 38 39  1  0  0  0
 38 81  1  0  0  0
 38 82  1  0  0  0
 39 40  2  0  0  0
 39 41  1  0  0  0
 41 42  1  0  0  0
 41 83  1  0  0  0
 42 43  1  0  0  0
 42 84  1  0  0  0
 42 85  1  0  0  0
 43 44  1  0  0  0
 43 86  1  0  0  0
 43 87  1  0  0  0
 44 49  1  0  0  0
 45 46  1  0  0  0
 45 47  1  0  0  0
 45 48  2  0  0  0
 46 88  1  0  0  0
 47 89  1  0  0  0
 49 50  1  0  0  0
 49 52  2  0  0  0
 50 51  1  0  0  0
 50 90  1  0  0  0
 50 91  1  0  0  0
 51 53  1  0  0  0
 51 54  2  0  0  0
 53 92  1  0  0  0
M  END
$$$$
