MLE
  CCTOOLS-1004241120

 25 24  0  0  1  0  0  0  0  0999 V2000
   -0.5190   -1.4170   -0.5190 N   0  0  0  0  0
   -1.1550   -2.4130    0.3540 C   0  0  0  0  0
   -0.3940   -0.1220    0.1630 C   0  0  0  0  0
    0.7770    0.6590   -0.4360 C   0  0  0  0  0
    2.0860   -0.0710   -0.1320 C   0  0  0  0  0
    3.2410    0.6310   -0.8500 C   0  0  0  0  0
    2.3400   -0.0580    1.3760 C   0  0  0  0  0
   -1.6670    0.6650   -0.0140 C   0  0  0  0  0
   -2.3640    0.4750   -0.9820 O   0  0  0  0  0
   -2.0250    1.5770    0.9030 O   0  0  0  0  0
    0.3780   -1.7420   -0.8450 H   0  0  0  0  0
   -0.5100   -2.6090    1.2110 H   0  0  0  0  0
   -2.1150   -2.0320    0.7010 H   0  0  0  0  0
   -1.3110   -3.3370   -0.2030 H   0  0  0  0  0
   -0.2140   -0.2870    1.2260 H   0  0  0  0  0
    0.6470    0.7370   -1.5160 H   0  0  0  0  0
    0.8080    1.6580   -0.0010 H   0  0  0  0  0
    2.0170   -1.1020   -0.4800 H   0  0  0  0  0
    4.1600    0.0650   -0.7000 H   0  0  0  0  0
    3.0220    0.6940   -1.9160 H   0  0  0  0  0
    3.3630    1.6360   -0.4440 H   0  0  0  0  0
    1.5180   -0.5580    1.8880 H   0  0  0  0  0
    3.2730   -0.5780    1.5930 H   0  0  0  0  0
    2.4100    0.9730    1.7240 H   0  0  0  0  0
   -2.8500    2.0570    0.7460 H   0  0  0  0  0
  1  2  1  0  0  0
  1  3  1  0  0  0
  1 11  1  0  0  0
  2 12  1  0  0  0
  2 13  1  0  0  0
  2 14  1  0  0  0
  3  4  1  0  0  0
  3  8  1  0  0  0
  3 15  1  0  0  0
  4  5  1  0  0  0
  4 16  1  0  0  0
  4 17  1  0  0  0
  5  6  1  0  0  0
  5  7  1  0  0  0
  5 18  1  0  0  0
  6 19  1  0  0  0
  6 20  1  0  0  0
  6 21  1  0  0  0
  7 22  1  0  0  0
  7 23  1  0  0  0
  7 24  1  0  0  0
  8  9  2  0  0  0
  8 10  1  0  0  0
 10 25  1  0  0  0
M  END
$$$$
