MLR
  CCTOOLS-0919241035

 66 68  0  0  1  0  0  0  0  0999 V2000
    5.7920    1.4850    0.1550 C   0  0  0  0  0
    5.7180    0.0800    0.7590 C   0  0  0  0  0
    4.5920   -0.7020    0.0750 C   0  0  0  0  0
    3.2790    0.0700    0.2360 C   0  0  0  0  0
    3.4470    1.4750   -0.3480 C   0  0  0  0  0
    2.1590    2.2730   -0.1380 C   0  0  0  0  0
    6.1120    1.3900   -1.2350 O   0  0  0  0  0
    6.9610   -0.5940    0.5530 O   0  0  0  0  0
    4.4670   -1.9890    0.6830 O   0  0  0  0  0
    2.2350   -0.6140   -0.4600 O   0  0  0  0  0
    4.5300    2.1360    0.3100 O   0  0  0  0  0
    2.2820    3.5500   -0.7660 O   0  0  0  0  0
    1.6120   -1.6510    0.3010 C   0  0  0  0  0
    0.7420   -2.5090   -0.6220 C   0  0  0  0  0
   -0.3680   -1.6390   -1.2190 C   0  0  0  0  0
   -1.1760   -1.0080   -0.0800 C   0  0  0  0  0
   -0.2320   -0.2080    0.8220 C   0  0  0  0  0
   -1.0210    0.3760    1.9960 C   0  0  0  0  0
    1.5460   -3.0450   -1.6740 O   0  0  0  0  0
   -1.2290   -2.4470   -2.0240 O   0  0  0  0  0
   -2.1690   -0.1370   -0.6240 O   0  0  0  0  0
    0.7940   -1.0690    1.3190 O   0  0  0  0  0
   -0.1610    1.2010    2.7840 O   0  0  0  0  0
   -3.3810   -0.7970   -0.9950 C   0  0  0  0  0
   -4.2410    0.1500   -1.8370 C   0  0  0  0  0
   -4.6160    1.3720   -0.9940 C   0  0  0  0  0
   -5.3380    0.9030    0.2730 C   0  0  0  0  0
   -4.4360   -0.0720    1.0340 C   0  0  0  0  0
   -5.1740   -0.5920    2.2690 C   0  0  0  0  0
   -3.5030    0.5700   -2.9860 O   0  0  0  0  0
   -5.4790    2.2260   -1.7470 O   0  0  0  0  0
   -5.6290    2.0300    1.1020 O   0  0  0  0  0
   -4.1000   -1.1700    0.1830 O   0  0  0  0  0
   -4.2930   -1.4110    3.0410 O   0  0  0  0  0
    6.5640    2.0600    0.6660 H   0  0  0  0  0
    5.5150    0.1530    1.8270 H   0  0  0  0  0
    4.8200   -0.8200   -0.9840 H   0  0  0  0  0
    3.0260    0.1430    1.2930 H   0  0  0  0  0
    3.6600    1.4030   -1.4150 H   0  0  0  0  0
    1.3210    1.7320   -0.5760 H   0  0  0  0  0
    1.9850    2.4080    0.9300 H   0  0  0  0  0
    6.1750    2.2440   -1.6830 H   0  0  0  0  0
    7.7200   -0.1510    0.9560 H   0  0  0  0  0
    5.2660   -2.5310    0.6250 H   0  0  0  0  0
    1.5000    4.1110   -0.6730 H   0  0  0  0  0
    2.3780   -2.2740    0.7620 H   0  0  0  0  0
    0.2990   -3.3250   -0.0500 H   0  0  0  0  0
    0.0730   -0.8540   -1.8320 H   0  0  0  0  0
   -1.6580   -1.7930    0.5030 H   0  0  0  0  0
    0.2190    0.6020    0.2480 H   0  0  0  0  0
   -1.8490    0.9740    1.6150 H   0  0  0  0  0
   -1.4110   -0.4350    2.6110 H   0  0  0  0  0
    2.2740   -3.6030   -1.3680 H   0  0  0  0  0
   -0.7820   -2.8840   -2.7610 H   0  0  0  0  0
   -0.5950    1.6050    3.5480 H   0  0  0  0  0
   -3.1460   -1.6880   -1.5760 H   0  0  0  0  0
   -5.1470   -0.3670   -2.1550 H   0  0  0  0  0
   -3.7130    1.9160   -0.7180 H   0  0  0  0  0
   -6.2670    0.4020   -0.0010 H   0  0  0  0  0
   -3.5260    0.4410    1.3430 H   0  0  0  0  0
   -5.5090    0.2510    2.8730 H   0  0  0  0  0
   -6.0360   -1.1810    1.9570 H   0  0  0  0  0
   -3.2270   -0.1550   -3.5630 H   0  0  0  0  0
   -5.0880    2.5550   -2.5680 H   0  0  0  0  0
   -6.1940    2.6930    0.6810 H   0  0  0  0  0
   -4.6950   -1.7750    3.8410 H   0  0  0  0  0
  1  2  1  0  0  0
  1  7  1  0  0  0
  1 11  1  0  0  0
  1 35  1  0  0  0
  2  3  1  0  0  0
  2  8  1  0  0  0
  2 36  1  0  0  0
  3  9  1  0  0  0
  3  4  1  0  0  0
  3 37  1  0  0  0
  4  5  1  0  0  0
  4 10  1  0  0  0
  4 38  1  0  0  0
  5  6  1  0  0  0
  5 11  1  0  0  0
  5 39  1  0  0  0
  6 12  1  0  0  0
  6 40  1  0  0  0
  6 41  1  0  0  0
  7 42  1  0  0  0
  8 43  1  0  0  0
  9 44  1  0  0  0
 10 13  1  0  0  0
 12 45  1  0  0  0
 13 14  1  0  0  0
 13 22  1  0  0  0
 13 46  1  0  0  0
 14 19  1  0  0  0
 14 15  1  0  0  0
 14 47  1  0  0  0
 15 20  1  0  0  0
 15 16  1  0  0  0
 15 48  1  0  0  0
 16 17  1  0  0  0
 16 21  1  0  0  0
 16 49  1  0  0  0
 17 22  1  0  0  0
 17 18  1  0  0  0
 17 50  1  0  0  0
 18 23  1  0  0  0
 18 51  1  0  0  0
 18 52  1  0  0  0
 19 53  1  0  0  0
 20 54  1  0  0  0
 21 24  1  0  0  0
 23 55  1  0  0  0
 24 25  1  0  0  0
 24 33  1  0  0  0
 24 56  1  0  0  0
 25 30  1  0  0  0
 25 26  1  0  0  0
 25 57  1  0  0  0
 26 27  1  0  0  0
 26 31  1  0  0  0
 26 58  1  0  0  0
 27 28  1  0  0  0
 27 32  1  0  0  0
 27 59  1  0  0  0
 28 33  1  0  0  0
 28 29  1  0  0  0
 28 60  1  0  0  0
 29 34  1  0  0  0
 29 61  1  0  0  0
 29 62  1  0  0  0
 30 63  1  0  0  0
 31 64  1  0  0  0
 32 65  1  0  0  0
 34 66  1  0  0  0
M  END
$$$$
