MLU
  CCTOOLS-1004241120

 25 24  0  0  1  0  0  0  0  0999 V2000
    0.5150   -1.4160   -0.5040 N   0  0  0  0  0
    1.1920   -2.3930    0.3590 C   0  0  0  0  0
    0.3800   -0.1190    0.1730 C   0  0  0  0  0
    1.6490    0.6740   -0.0040 C   0  0  0  0  0
    2.3580    0.4740   -0.9620 O   0  0  0  0  0
   -0.7940    0.6530   -0.4320 C   0  0  0  0  0
   -2.0980   -0.0920   -0.1430 C   0  0  0  0  0
   -2.3550   -0.1030    1.3660 C   0  0  0  0  0
   -3.2560    0.6120   -0.8530 C   0  0  0  0  0
    1.9920    1.6040    0.9010 O   0  0  0  0  0
    0.9970   -1.3160   -1.3840 H   0  0  0  0  0
    1.2090   -3.3640   -0.1350 H   0  0  0  0  0
    2.2140   -2.0640    0.5480 H   0  0  0  0  0
    0.6560   -2.4760    1.3050 H   0  0  0  0  0
    0.1990   -0.2820    1.2360 H   0  0  0  0  0
   -0.8390    1.6490    0.0080 H   0  0  0  0  0
   -0.6550    0.7380   -1.5100 H   0  0  0  0  0
    2.8140    2.0870    0.7440 H   0  0  0  0  0
   -2.0190   -1.1170   -0.5050 H   0  0  0  0  0
   -2.4340    0.9220    1.7280 H   0  0  0  0  0
   -3.2850   -0.6340    1.5720 H   0  0  0  0  0
   -1.5300   -0.6040    1.8720 H   0  0  0  0  0
   -3.0730    0.6190   -1.9270 H   0  0  0  0  0
   -4.1850    0.0810   -0.6460 H   0  0  0  0  0
   -3.3350    1.6370   -0.4910 H   0  0  0  0  0
  1  2  1  0  0  0
  1  3  1  0  0  0
  1 11  1  0  0  0
  2 12  1  0  0  0
  2 13  1  0  0  0
  2 14  1  0  0  0
  3  4  1  0  0  0
  3  6  1  0  0  0
  3 15  1  0  0  0
  4  5  2  0  0  0
  4 10  1  0  0  0
  6  7  1  0  0  0
  6 16  1  0  0  0
  6 17  1  0  0  0
  7  8  1  0  0  0
  7  9  1  0  0  0
  7 19  1  0  0  0
  8 20  1  0  0  0
  8 21  1  0  0  0
  8 22  1  0  0  0
  9 23  1  0  0  0
  9 24  1  0  0  0
  9 25  1  0  0  0
 10 18  1  0  0  0
M  END
$$$$
