MLY
  CCTOOLS-1004241120

 30 29  0  0  1  0  0  0  0  0999 V2000
   -1.7960   -0.0120   -2.2010 N   0  0  0  0  0
   -0.4080    0.4670   -2.2560 C   0  0  0  0  0
    0.3520   -0.0330   -1.0260 C   0  0  0  0  0
   -0.3210    0.4960    0.2400 C   0  0  0  0  0
    0.4390   -0.0030    1.4700 C   0  0  0  0  0
   -0.2330    0.5260    2.7370 C   0  0  0  0  0
    0.4960    0.0450    3.9170 N   0  0  0  0  0
   -0.1970    0.5870    5.0930 C   0  0  0  0  0
    0.3210   -1.4120    3.9580 C   0  0  0  0  0
    0.2540   -0.0540   -3.5040 C   0  0  0  0  0
   -0.0890   -1.1130   -3.9730 O   0  0  0  0  0
    1.2270    0.6560   -4.0950 O   0  0  0  0  0
   -2.1660    0.2710   -1.3070 H   0  0  0  0  0
   -1.7540   -1.0200   -2.1910 H   0  0  0  0  0
   -0.4010    1.5570   -2.2690 H   0  0  0  0  0
    1.3810    0.3220   -1.0670 H   0  0  0  0  0
    0.3440   -1.1230   -1.0130 H   0  0  0  0  0
   -1.3500    0.1410    0.2810 H   0  0  0  0  0
   -0.3130    1.5860    0.2270 H   0  0  0  0  0
    1.4690    0.3520    1.4290 H   0  0  0  0  0
    0.4320   -1.0930    1.4830 H   0  0  0  0  0
   -1.2630    0.1700    2.7770 H   0  0  0  0  0
   -0.2260    1.6160    2.7240 H   0  0  0  0  0
    0.3100    0.2560    5.9990 H   0  0  0  0  0
   -0.1900    1.6760    5.0500 H   0  0  0  0  0
   -1.2270    0.2300    5.1030 H   0  0  0  0  0
    0.8220   -1.8620    3.1010 H   0  0  0  0  0
    0.7530   -1.8040    4.8780 H   0  0  0  0  0
   -0.7410   -1.6510    3.9250 H   0  0  0  0  0
    1.6530    0.3210   -4.8960 H   0  0  0  0  0
  1  2  1  0  0  0
  1 13  1  0  0  0
  1 14  1  0  0  0
  2  3  1  0  0  0
  2 10  1  0  0  0
  2 15  1  0  0  0
  3  4  1  0  0  0
  3 16  1  0  0  0
  3 17  1  0  0  0
  4  5  1  0  0  0
  4 18  1  0  0  0
  4 19  1  0  0  0
  5  6  1  0  0  0
  5 20  1  0  0  0
  5 21  1  0  0  0
  6  7  1  0  0  0
  6 22  1  0  0  0
  6 23  1  0  0  0
  7  8  1  0  0  0
  7  9  1  0  0  0
  8 24  1  0  0  0
  8 25  1  0  0  0
  8 26  1  0  0  0
  9 27  1  0  0  0
  9 28  1  0  0  0
  9 29  1  0  0  0
 10 11  2  0  0  0
 10 12  1  0  0  0
 12 30  1  0  0  0
M  END
$$$$
