MMA
  CCTOOLS-0919241035

 27 27  0  0  1  0  0  0  0  0999 V2000
    1.5370   -0.2760   -0.0270 C   0  0  0  0  0
    1.0390   -0.2880   -1.4740 C   0  0  0  0  0
   -0.2370    0.5500   -1.5720 C   0  0  0  0  0
   -1.2410    0.0370   -0.5330 C   0  0  0  0  0
   -0.5720    0.0240    0.8420 C   0  0  0  0  0
   -1.5780   -0.4550    1.8910 C   0  0  0  0  0
    2.2480    1.0170    1.7280 C   0  0  0  0  0
    1.7860    1.0710    0.3770 O   0  0  0  0  0
    0.7610   -1.6310   -1.8740 O   0  0  0  0  0
   -0.7970    0.4280   -2.8810 O   0  0  0  0  0
   -2.3820    0.8960   -0.5030 O   0  0  0  0  0
    0.5510   -0.8530    0.8260 O   0  0  0  0  0
   -0.9580   -0.4610    3.1780 O   0  0  0  0  0
    2.4590   -0.8520    0.0430 H   0  0  0  0  0
    1.8040    0.1350   -2.1250 H   0  0  0  0  0
   -0.0050    1.5960   -1.3690 H   0  0  0  0  0
   -1.5530   -0.9730   -0.7960 H   0  0  0  0  0
   -0.2410    1.0320    1.0930 H   0  0  0  0  0
   -2.4370    0.2140    1.9040 H   0  0  0  0  0
   -1.9080   -1.4640    1.6420 H   0  0  0  0  0
    2.4530    2.0280    2.0830 H   0  0  0  0  0
    1.4840    0.5590    2.3560 H   0  0  0  0  0
    3.1610    0.4240    1.7770 H   0  0  0  0  0
    1.5890   -2.1230   -1.7980 H   0  0  0  0  0
   -0.1340    0.7620   -3.5000 H   0  0  0  0  0
   -2.7720    0.8740   -1.3870 H   0  0  0  0  0
   -1.6240   -0.7690    3.8080 H   0  0  0  0  0
  1  2  1  0  0  0
  1  8  1  0  0  0
  1 12  1  0  0  0
  1 14  1  0  0  0
  2  3  1  0  0  0
  2  9  1  0  0  0
  2 15  1  0  0  0
  3  4  1  0  0  0
  3 10  1  0  0  0
  3 16  1  0  0  0
  4  5  1  0  0  0
  4 11  1  0  0  0
  4 17  1  0  0  0
  5  6  1  0  0  0
  5 12  1  0  0  0
  5 18  1  0  0  0
  6 13  1  0  0  0
  6 19  1  0  0  0
  6 20  1  0  0  0
  7  8  1  0  0  0
  7 21  1  0  0  0
  7 22  1  0  0  0
  7 23  1  0  0  0
  9 24  1  0  0  0
 10 25  1  0  0  0
 11 26  1  0  0  0
 13 27  1  0  0  0
M  END
$$$$
