MMC
  CCTOOLS-0919241035

  5  4  0  0  0  0  0  0  0  0999 V2000
    0.0000    0.0000   -0.1510 HG  0  3  0  0  0
    0.0000    0.0000    1.9480 C   0  0  0  0  0
   -0.0090    1.0270    2.3110 H   0  0  0  0  0
   -0.8850   -0.5220    2.3110 H   0  0  0  0  0
    0.8940   -0.5050    2.3110 H   0  0  0  0  0
  1  2  1  0  0  0
  2  3  1  0  0  0
  2  4  1  0  0  0
  2  5  1  0  0  0
M  CHG  1   1   1
M  END
$$$$
