MMV
  CCTOOLS-0919241035

 50 51  0  0  0  0  0  0  0  0999 V2000
   -4.3600   -0.5550   -1.3650 C   0  0  0  0  0
   -5.6470   -0.2640   -1.5220 N   0  0  0  0  0
   -6.3690    0.1780   -0.5030 C   0  0  0  0  0
   -5.8450    0.3460    0.7000 N   0  0  0  0  0
   -4.5670    0.0760    0.9320 C   0  0  0  0  0
   -3.7760   -0.3870   -0.1040 C   0  0  0  0  0
   -3.6080   -1.0220   -2.4340 N   0  0  0  0  0
   -7.7090    0.4720   -0.7030 N   0  0  0  0  0
   -3.9840    0.2730    2.3080 C   0  0  0  0  0
   -4.1350   -1.0180    3.1150 C   0  0  0  0  0
   -2.4620   -0.6790    0.1000 O   0  0  0  0  0
   -1.5230    0.3780   -0.1070 C   0  0  0  0  0
   -0.1080   -0.1360    0.1680 C   0  0  0  0  0
    0.8970    0.9960   -0.0540 C   0  0  0  0  0
    2.2190    0.5170    0.2030 O   0  0  0  0  0
    3.2370    1.4030    0.0510 C   0  0  0  0  0
    4.5470    1.0040    0.2780 C   0  0  0  0  0
    5.5800    1.9070    0.1230 C   0  0  0  0  0
    5.3110    3.2080   -0.2590 C   0  0  0  0  0
    4.0080    3.6090   -0.4850 C   0  0  0  0  0
    2.9710    2.7080   -0.3360 C   0  0  0  0  0
    4.8410   -0.4150    0.6950 C   0  0  0  0  0
    4.9410   -1.3010   -0.5490 C   0  0  0  0  0
    5.2350   -2.7190   -0.1320 C   0  0  0  0  0
    5.3670   -3.6780   -1.0620 O   0  0  0  0  0
    5.3520   -2.9930    1.0380 O   0  0  0  0  0
   -2.6700   -1.2360   -2.3100 H   0  0  0  0  0
   -4.0210   -1.1350   -3.3040 H   0  0  0  0  0
   -8.2490    0.7960    0.0340 H   0  0  0  0  0
   -8.1060    0.3530   -1.5800 H   0  0  0  0  0
   -2.9270    0.5260    2.2220 H   0  0  0  0  0
   -4.5110    1.0820    2.8140 H   0  0  0  0  0
   -5.1920   -1.2710    3.2010 H   0  0  0  0  0
   -3.6080   -1.8260    2.6090 H   0  0  0  0  0
   -3.7130   -0.8750    4.1100 H   0  0  0  0  0
   -1.5890    0.7270   -1.1380 H   0  0  0  0  0
   -1.7480    1.2020    0.5700 H   0  0  0  0  0
   -0.0410   -0.4840    1.1980 H   0  0  0  0  0
    0.1180   -0.9590   -0.5100 H   0  0  0  0  0
    0.8310    1.3450   -1.0840 H   0  0  0  0  0
    0.6720    1.8200    0.6240 H   0  0  0  0  0
    6.5990    1.5960    0.3000 H   0  0  0  0  0
    6.1210    3.9130   -0.3800 H   0  0  0  0  0
    3.8000    4.6270   -0.7830 H   0  0  0  0  0
    1.9530    3.0210   -0.5180 H   0  0  0  0  0
    5.7840   -0.4450    1.2400 H   0  0  0  0  0
    4.0380   -0.7790    1.3360 H   0  0  0  0  0
    3.9980   -1.2700   -1.0940 H   0  0  0  0  0
    5.7440   -0.9370   -1.1900 H   0  0  0  0  0
    5.5550   -4.5720   -0.7470 H   0  0  0  0  0
  1  6  1  0  0  0
  1  7  1  0  0  0
  2  1  2  0  0  0
  3  4  2  0  0  0
  3  2  1  0  0  0
  4  5  1  0  0  0
  5  9  1  0  0  0
  5  6  2  0  0  0
  6 11  1  0  0  0
  7 27  1  0  0  0
  7 28  1  0  0  0
  8  3  1  0  0  0
  8 29  1  0  0  0
  8 30  1  0  0  0
  9 31  1  0  0  0
  9 32  1  0  0  0
 10  9  1  0  0  0
 10 33  1  0  0  0
 10 34  1  0  0  0
 10 35  1  0  0  0
 11 12  1  0  0  0
 12 13  1  0  0  0
 12 36  1  0  0  0
 12 37  1  0  0  0
 13 14  1  0  0  0
 13 38  1  0  0  0
 13 39  1  0  0  0
 14 40  1  0  0  0
 14 41  1  0  0  0
 15 16  1  0  0  0
 15 14  1  0  0  0
 16 21  2  0  0  0
 17 18  2  0  0  0
 17 16  1  0  0  0
 18 19  1  0  0  0
 18 42  1  0  0  0
 19 20  2  0  0  0
 19 43  1  0  0  0
 20 44  1  0  0  0
 21 20  1  0  0  0
 21 45  1  0  0  0
 22 17  1  0  0  0
 22 46  1  0  0  0
 22 47  1  0  0  0
 23 22  1  0  0  0
 23 48  1  0  0  0
 23 49  1  0  0  0
 24 23  1  0  0  0
 25 24  1  0  0  0
 25 50  1  0  0  0
 26 24  2  0  0  0
M  END
$$$$
