MN1
  CCTOOLS-1004241120

 20 20  0  0  0  0  0  0  0  0999 V2000
    0.0170    0.4260   -2.4960 N   0  0  0  0  0
   -1.0750   -0.3830   -1.9480 C   0  0  0  0  0
   -1.2520   -0.0760   -0.4590 C   0  0  0  0  0
    0.0360   -0.4390    0.2850 C   0  0  0  0  0
   -0.0870   -0.0360    1.7320 C   0  0  0  0  0
   -1.1010    0.4860    2.1290 O   0  0  0  0  0
    0.9290   -0.2590    2.5790 O   0  0  0  0  0
    1.2090    0.3080   -0.3570 C   0  0  0  0  0
    1.2560   -0.0180   -1.8500 C   0  0  0  0  0
    0.0950    0.1850   -3.4720 H   0  0  0  0  0
   -0.8410   -1.4400   -2.0750 H   0  0  0  0  0
   -1.9990   -0.1510   -2.4780 H   0  0  0  0  0
   -2.0800   -0.6640   -0.0620 H   0  0  0  0  0
   -1.4610    0.9840   -0.3290 H   0  0  0  0  0
    0.2060   -1.5140    0.2180 H   0  0  0  0  0
    0.8500   -0.0010    3.5080 H   0  0  0  0  0
    1.0730    1.3810   -0.2230 H   0  0  0  0  0
    2.1410   -0.0030    0.1140 H   0  0  0  0  0
    1.3670   -1.0940   -1.9820 H   0  0  0  0  0
    2.1050    0.4910   -2.3060 H   0  0  0  0  0
  1  2  1  0  0  0
  1  9  1  0  0  0
  1 10  1  0  0  0
  2  3  1  0  0  0
  2 11  1  0  0  0
  2 12  1  0  0  0
  3  4  1  0  0  0
  3 13  1  0  0  0
  3 14  1  0  0  0
  4  5  1  0  0  0
  4  8  1  0  0  0
  4 15  1  0  0  0
  5  6  2  0  0  0
  5  7  1  0  0  0
  7 16  1  0  0  0
  8  9  1  0  0  0
  8 17  1  0  0  0
  8 18  1  0  0  0
  9 19  1  0  0  0
  9 20  1  0  0  0
M  END
$$$$
