MN2
  CCTOOLS-1004241120

 32 32  0  0  0  0  0  0  0  0999 V2000
   -1.0930   -0.0660   -0.5020 C   0  0  0  0  0
   -1.7460    1.1500   -0.4240 C   0  0  0  0  0
   -3.0530    1.2060    0.0240 C   0  0  0  0  0
   -3.7060    0.0460    0.3950 C   0  0  0  0  0
   -3.0520   -1.1700    0.3220 C   0  0  0  0  0
   -1.7470   -1.2260   -0.1300 C   0  0  0  0  0
    0.3310   -0.1270   -0.9910 C   0  0  0  0  0
    1.2470    0.0140    0.1490 N   0  0  0  0  0
    2.6100   -0.0540   -0.3940 C   0  0  0  0  0
    3.6210    0.0870    0.7460 C   0  0  0  0  0
    5.0190    0.0170    0.1890 C   0  0  0  0  0
    5.1900   -0.1290   -0.9990 O   0  0  0  0  0
    6.0750    0.1190    1.0110 O   0  0  0  0  0
   -5.1310    0.1060    0.8840 C   0  0  0  0  0
   -6.0460   -0.0340   -0.2570 N   0  3  0  0  0
   -1.2360    2.0560   -0.7140 H   0  0  0  0  0
   -3.5630    2.1560    0.0850 H   0  0  0  0  0
   -3.5620   -2.0760    0.6130 H   0  0  0  0  0
   -1.2370   -2.1760   -0.1900 H   0  0  0  0  0
    0.5060   -1.0840   -1.4820 H   0  0  0  0  0
    0.5060    0.6820   -1.7000 H   0  0  0  0  0
    1.1230    0.9490    0.5060 H   0  0  0  0  0
    2.7550   -1.0120   -0.8930 H   0  0  0  0  0
    2.7560    0.7540   -1.1110 H   0  0  0  0  0
    3.4750    1.0450    1.2440 H   0  0  0  0  0
    3.4750   -0.7210    1.4620 H   0  0  0  0  0
    6.9720    0.0740    0.6540 H   0  0  0  0  0
   -5.3050    1.0640    1.3750 H   0  0  0  0  0
   -5.3060   -0.7030    1.5920 H   0  0  0  0  0
   -5.8840   -0.9200   -0.7110 H   0  0  0  0  0
   -5.8830    0.7160   -0.9120 H   0  0  0  0  0
   -7.0000    0.0070    0.0710 H   0  0  0  0  0
  1  2  2  0  0  0
  1  6  1  0  0  0
  1  7  1  0  0  0
  2  3  1  0  0  0
  2 16  1  0  0  0
  3  4  2  0  0  0
  3 17  1  0  0  0
  4  5  1  0  0  0
  4 14  1  0  0  0
  5  6  2  0  0  0
  5 18  1  0  0  0
  6 19  1  0  0  0
  7  8  1  0  0  0
  7 20  1  0  0  0
  7 21  1  0  0  0
  8  9  1  0  0  0
  8 22  1  0  0  0
  9 10  1  0  0  0
  9 23  1  0  0  0
  9 24  1  0  0  0
 10 11  1  0  0  0
 10 25  1  0  0  0
 10 26  1  0  0  0
 11 12  2  0  0  0
 11 13  1  0  0  0
 13 27  1  0  0  0
 14 15  1  0  0  0
 14 28  1  0  0  0
 14 29  1  0  0  0
 15 30  1  0  0  0
 15 31  1  0  0  0
 15 32  1  0  0  0
M  CHG  1  15   1
M  END
$$$$
