MN7
  CCTOOLS-1004241120

 32 32  0  0  0  0  0  0  0  0999 V2000
    0.0290   -0.0240   -2.7580 C   0  0  0  0  0
    0.2520    0.3410   -4.1720 C   0  0  0  0  0
    1.3050    0.0660   -4.7120 O   0  0  0  0  0
   -0.7110    0.9800   -4.8630 O   0  0  0  0  0
    1.0270   -0.6860   -2.0400 C   0  0  0  0  0
    0.8120   -1.0240   -0.7200 C   0  0  0  0  0
   -0.3880   -0.7090   -0.1080 C   0  0  0  0  0
   -1.3820   -0.0580   -0.8160 C   0  0  0  0  0
   -1.1790    0.2900   -2.1350 C   0  0  0  0  0
   -0.6150   -1.0820    1.3340 C   0  0  0  0  0
   -0.1660    0.0160    2.2000 N   0  0  0  0  0
   -0.4140   -0.4090    3.5840 C   0  0  0  0  0
    0.0320    0.6940    4.5450 C   0  0  0  0  0
   -0.2250    0.2500    5.9860 C   0  0  0  0  0
    1.5260    0.9620    4.3540 C   0  0  0  0  0
   -0.5650    1.2190   -5.7880 H   0  0  0  0  0
    1.9640   -0.9320   -2.5160 H   0  0  0  0  0
    1.5830   -1.5360   -0.1620 H   0  0  0  0  0
   -2.3170    0.1840   -0.3320 H   0  0  0  0  0
   -1.9540    0.8020   -2.6850 H   0  0  0  0  0
   -0.0500   -1.9840    1.5690 H   0  0  0  0  0
   -1.6770   -1.2640    1.4990 H   0  0  0  0  0
   -0.7810    0.7950    2.0220 H   0  0  0  0  0
    0.1470   -1.3200    3.7900 H   0  0  0  0  0
   -1.4790   -0.6000    3.7200 H   0  0  0  0  0
   -0.5290    1.6050    4.3380 H   0  0  0  0  0
    0.0920    1.0370    6.6710 H   0  0  0  0  0
   -1.2900    0.0600    6.1220 H   0  0  0  0  0
    0.3350   -0.6600    6.1920 H   0  0  0  0  0
    2.0880    0.0510    4.5600 H   0  0  0  0  0
    1.7100    1.2770    3.3270 H   0  0  0  0  0
    1.8450    1.7480    5.0380 H   0  0  0  0  0
  1  2  1  0  0  0
  1  5  2  0  0  0
  1  9  1  0  0  0
  2  3  2  0  0  0
  2  4  1  0  0  0
  4 16  1  0  0  0
  5  6  1  0  0  0
  5 17  1  0  0  0
  6  7  2  0  0  0
  6 18  1  0  0  0
  7  8  1  0  0  0
  7 10  1  0  0  0
  8  9  2  0  0  0
  8 19  1  0  0  0
  9 20  1  0  0  0
 10 11  1  0  0  0
 10 21  1  0  0  0
 10 22  1  0  0  0
 11 12  1  0  0  0
 11 23  1  0  0  0
 12 13  1  0  0  0
 12 24  1  0  0  0
 12 25  1  0  0  0
 13 14  1  0  0  0
 13 15  1  0  0  0
 13 26  1  0  0  0
 14 27  1  0  0  0
 14 28  1  0  0  0
 14 29  1  0  0  0
 15 30  1  0  0  0
 15 31  1  0  0  0
 15 32  1  0  0  0
M  END
$$$$
