MN8
  CCTOOLS-1004241120

 39 41  0  0  1  0  0  0  0  0999 V2000
   -1.9730   -0.1830    3.0730 C   0  0  0  0  0
   -1.9410   -0.0680    4.2820 O   0  0  0  0  0
   -3.1490   -0.3930    2.4470 O   0  0  0  0  0
   -0.7300   -0.0940    2.2920 C   0  0  0  0  0
    0.4780    0.1300    2.9020 C   0  0  0  0  0
    0.7890    0.3130    4.3650 C   0  0  0  0  0
    1.7570   -0.7800    4.8210 C   0  0  0  0  0
    1.4300    1.6850    4.5830 C   0  0  0  0  0
    1.5550    0.1410    1.5410 S   0  0  0  0  0
    0.3830   -0.1330    0.2940 C   0  0  0  0  0
   -0.7360   -0.2170    0.9630 N   0  0  0  0  0
    0.6010   -0.2480   -1.1920 C   0  0  0  0  0
    0.1430   -1.5650   -1.6570 N   0  0  0  0  0
    0.6860   -1.7470   -3.0050 C   0  0  0  0  0
    0.2670   -0.6170   -3.9080 C   0  0  0  0  0
   -0.1460    0.5950   -3.4000 C   0  0  0  0  0
   -0.2000    0.8370   -1.9130 C   0  0  0  0  0
   -0.5200    1.6150   -4.2600 C   0  0  0  0  0
   -0.4830    1.4200   -5.6270 C   0  0  0  0  0
   -0.0690    0.2040   -6.1370 C   0  0  0  0  0
    0.3040   -0.8110   -5.2810 C   0  0  0  0  0
   -3.9660   -0.4520    2.9600 H   0  0  0  0  0
   -0.1320    0.2460    4.9430 H   0  0  0  0  0
    1.9810   -0.6480    5.8800 H   0  0  0  0  0
    1.3000   -1.7570    4.6660 H   0  0  0  0  0
    2.6780   -0.7130    4.2430 H   0  0  0  0  0
    2.3510    1.7510    4.0050 H   0  0  0  0  0
    0.7400    2.4640    4.2580 H   0  0  0  0  0
    1.6540    1.8170    5.6420 H   0  0  0  0  0
    1.6610   -0.1290   -1.4160 H   0  0  0  0  0
    0.5890   -2.2540   -1.0700 H   0  0  0  0  0
    0.3210   -2.6880   -3.4140 H   0  0  0  0  0
    1.7740   -1.7780   -2.9500 H   0  0  0  0  0
   -1.2370    0.8060   -1.5770 H   0  0  0  0  0
    0.2260    1.8140   -1.6870 H   0  0  0  0  0
   -0.8430    2.5650   -3.8600 H   0  0  0  0  0
   -0.7750    2.2170   -6.2950 H   0  0  0  0  0
   -0.0400    0.0480   -7.2060 H   0  0  0  0  0
    0.6260   -1.7610   -5.6810 H   0  0  0  0  0
  1  2  2  0  0  0
  1  3  1  0  0  0
  1  4  1  0  0  0
  3 22  1  0  0  0
  4  5  2  0  0  0
  4 11  1  0  0  0
  5  6  1  0  0  0
  5  9  1  0  0  0
  6  7  1  0  0  0
  6  8  1  0  0  0
  6 23  1  0  0  0
  7 24  1  0  0  0
  7 25  1  0  0  0
  7 26  1  0  0  0
  8 27  1  0  0  0
  8 28  1  0  0  0
  8 29  1  0  0  0
  9 10  1  0  0  0
 10 11  2  0  0  0
 10 12  1  0  0  0
 12 13  1  0  0  0
 12 17  1  0  0  0
 12 30  1  0  0  0
 13 14  1  0  0  0
 13 31  1  0  0  0
 14 15  1  0  0  0
 14 32  1  0  0  0
 14 33  1  0  0  0
 15 16  2  0  0  0
 15 21  1  0  0  0
 16 17  1  0  0  0
 16 18  1  0  0  0
 17 34  1  0  0  0
 17 35  1  0  0  0
 18 19  2  0  0  0
 18 36  1  0  0  0
 19 20  1  0  0  0
 19 37  1  0  0  0
 20 21  2  0  0  0
 20 38  1  0  0  0
 21 39  1  0  0  0
M  END
$$$$
