MO7
  CCTOOLS-0919241035

 31 42  0  0  0  0  0  0  0  0999 V2000
    0.0000    0.0000    0.0000 MO  0  0  0  0  0
    0.0000    0.0000    0.0000 O   0  0  0  0  0
    0.0000    0.0000    0.0000 O   0  0  0  0  0
    0.0000    0.0000    0.0000 O   0  0  0  0  0
    0.0000    0.0000    0.0000 O   0  0  0  0  0
    0.0000    0.0000    0.0000 O   0  0  0  0  0
    0.0000    0.0000    0.0000 MO  0  0  0  0  0
    0.0000    0.0000    0.0000 O   0  5  0  0  0
    0.0000    0.0000    0.0000 O   0  0  0  0  0
    0.0000    0.0000    0.0000 O   0  0  0  0  0
    0.0000    0.0000    0.0000 MO  0  0  0  0  0
    0.0000    0.0000    0.0000 O   0  0  0  0  0
    0.0000    0.0000    0.0000 O   0  5  0  0  0
    0.0000    0.0000    0.0000 O   0  0  0  0  0
    0.0000    0.0000    0.0000 MO  0  0  0  0  0
    0.0000    0.0000    0.0000 O   0  0  0  0  0
    0.0000    0.0000    0.0000 O   0  0  0  0  0
    0.0000    0.0000    0.0000 O   0  5  0  0  0
    0.0000    0.0000    0.0000 MO  0  0  0  0  0
    0.0000    0.0000    0.0000 O   0  0  0  0  0
    0.0000    0.0000    0.0000 O   0  5  0  0  0
    0.0000    0.0000    0.0000 O   0  0  0  0  0
    0.0000    0.0000    0.0000 O   0  0  0  0  0
    0.0000    0.0000    0.0000 O   0  0  0  0  0
    0.0000    0.0000    0.0000 MO  0  0  0  0  0
    0.0000    0.0000    0.0000 MO  0  0  0  0  0
    0.0000    0.0000    0.0000 O   0  0  0  0  0
    0.0000    0.0000    0.0000 O   0  5  0  0  0
    0.0000    0.0000    0.0000 O   0  0  0  0  0
    0.0000    0.0000    0.0000 O   0  0  0  0  0
    0.0000    0.0000    0.0000 O   0  5  0  0  0
  1  2  1  0  0  0
  1  3  1  0  0  0
  1  4  1  0  0  0
  1  5  1  0  0  0
  1  6  1  0  0  0
  1 22  1  0  0  0
  2 19  1  0  0  0
  3  7  1  0  0  0
  3 11  1  0  0  0
  3 25  1  0  0  0
  4 11  1  0  0  0
  4 15  1  0  0  0
  5  7  1  0  0  0
  6 15  1  0  0  0
  6 19  1  0  0  0
  6 26  1  0  0  0
  7  8  1  0  0  0
  7  9  1  0  0  0
  7 10  2  0  0  0
  7 23  1  0  0  0
  9 11  1  0  0  0
 11 12  1  0  0  0
 11 13  1  0  0  0
 11 14  2  0  0  0
 12 15  1  0  0  0
 15 16  1  0  0  0
 15 17  2  0  0  0
 15 18  1  0  0  0
 16 19  1  0  0  0
 19 20  2  0  0  0
 19 21  1  0  0  0
 19 24  1  0  0  0
 22 25  1  0  0  0
 22 26  1  0  0  0
 23 25  1  0  0  0
 24 26  1  0  0  0
 25 27  1  0  0  0
 25 28  1  0  0  0
 25 29  2  0  0  0
 26 27  1  0  0  0
 26 30  2  0  0  0
 26 31  1  0  0  0
M  CHG  1   8  -1
M  CHG  1  13  -1
M  CHG  1  18  -1
M  CHG  1  21  -1
M  CHG  1  28  -1
M  CHG  1  31  -1
M  END
$$$$
