MOB
  CCTOOLS-0919241035

 36 37  0  0  0  0  0  0  0  0999 V2000
    0.7660    0.0000   -2.4530 C   0  0  0  0  0
   -0.1070   -0.0050   -3.5590 C   0  0  0  0  0
    0.4180   -0.0020   -4.8510 C   0  0  0  0  0
    1.7850   -0.0050   -5.0390 C   0  0  0  0  0
    2.6440   -0.0040   -3.9520 C   0  0  0  0  0
    2.1460   -0.0010   -2.6660 C   0  0  0  0  0
    0.5730    0.0050    1.0940 C   0  0  0  0  0
    1.4430    0.0050    2.1900 C   0  0  0  0  0
    0.9350    0.0080    3.4750 C   0  0  0  0  0
   -0.4420    0.0050    3.6800 C   0  0  0  0  0
   -1.3110    0.0100    2.5920 C   0  0  0  0  0
   -0.8100    0.0080    1.3040 C   0  0  0  0  0
   -1.5680   -0.0030   -3.3520 C   0  0  0  0  0
    3.1090    0.0040    4.0130 C   0  0  0  0  0
   -3.2700    0.0120    1.5070 C   0  0  0  0  0
    0.2670    0.0020   -1.1820 N   0  0  0  0  0
    1.0710    0.0020   -0.1740 N   0  0  0  0  0
   -2.0210   -0.0050   -2.2240 O   0  0  0  0  0
   -2.3990    0.0000   -4.4120 O   0  0  0  0  0
    1.7800    0.0080    4.5400 O   0  0  0  0  0
   -0.9390    0.0070    4.9450 O   0  0  0  0  0
   -2.6560    0.0130    2.7970 O   0  0  0  0  0
   -0.2440   -0.0030   -5.7030 H   0  0  0  0  0
    2.1880   -0.0070   -6.0410 H   0  0  0  0  0
    3.7120   -0.0060   -4.1130 H   0  0  0  0  0
    2.8220   -0.0010   -1.8240 H   0  0  0  0  0
    2.5120    0.0030    2.0310 H   0  0  0  0  0
   -1.4850    0.0080    0.4610 H   0  0  0  0  0
    3.8250    0.0040    4.8340 H   0  0  0  0  0
    3.2550   -0.8860    3.4030 H   0  0  0  0  0
    3.2580    0.8930    3.4000 H   0  0  0  0  0
   -4.3540    0.0130    1.6210 H   0  0  0  0  0
   -2.9610    0.9000    0.9570 H   0  0  0  0  0
   -2.9640   -0.8790    0.9590 H   0  0  0  0  0
   -3.3560    0.0020   -4.2760 H   0  0  0  0  0
   -1.0470   -0.9170    5.2050 H   0  0  0  0  0
  1  2  1  0  0  0
  1  6  2  0  0  0
  1 16  1  0  0  0
  2  3  2  0  0  0
  2 13  1  0  0  0
  3  4  1  0  0  0
  3 23  1  0  0  0
  4  5  2  0  0  0
  4 24  1  0  0  0
  5  6  1  0  0  0
  5 25  1  0  0  0
  6 26  1  0  0  0
  7  8  1  0  0  0
  7 12  2  0  0  0
  7 17  1  0  0  0
  8  9  2  0  0  0
  8 27  1  0  0  0
  9 10  1  0  0  0
  9 20  1  0  0  0
 10 11  2  0  0  0
 10 21  1  0  0  0
 11 12  1  0  0  0
 11 22  1  0  0  0
 12 28  1  0  0  0
 13 18  2  0  0  0
 13 19  1  0  0  0
 14 20  1  0  0  0
 14 29  1  0  0  0
 14 30  1  0  0  0
 14 31  1  0  0  0
 15 22  1  0  0  0
 15 32  1  0  0  0
 15 33  1  0  0  0
 15 34  1  0  0  0
 16 17  2  0  0  0
 19 35  1  0  0  0
 21 36  1  0  0  0
M  END
$$$$
