MP4
  CCTOOLS-1004241120

 25 25  0  0  1  0  0  0  0  0999 V2000
   -2.2370    0.0670   -0.1310 C   0  0  0  0  0
   -1.6860   -1.1560    0.2180 C   0  0  0  0  0
   -0.3360   -1.2450    0.5260 C   0  0  0  0  0
    2.3280    0.9530    1.6120 N   0  0  0  0  0
   -1.4370    1.1990   -0.1710 C   0  0  0  0  0
   -1.9740    2.4000   -0.5130 O   0  0  0  0  0
   -0.0870    1.1040    0.1370 C   0  0  0  0  0
    0.4600   -0.1160    0.4850 C   0  0  0  0  0
    1.9260   -0.2160    0.8190 C   0  0  0  0  0
    2.7300   -0.2610   -0.4550 C   0  0  0  0  0
    3.2740    0.7380   -0.8610 O   0  0  0  0  0
   -3.7010    0.1660   -0.4710 C   0  0  0  0  0
   -2.4680   -2.2670    0.2600 O   0  0  0  0  0
    0.0940   -2.1980    0.7980 H   0  0  0  0  0
    2.1700    1.8090    1.0990 H   0  0  0  0  0
    1.8490    0.9700    2.5000 H   0  0  0  0  0
   -2.3120    2.9070    0.2380 H   0  0  0  0  0
    0.5370    1.9850    0.1050 H   0  0  0  0  0
    2.1060   -1.1240    1.3950 H   0  0  0  0  0
    2.8420   -1.4110   -1.1380 O   0  0  0  0  0
   -4.2720    0.3740    0.4340 H   0  0  0  0  0
   -3.8540    0.9720   -1.1900 H   0  0  0  0  0
   -4.0380   -0.7760   -0.9050 H   0  0  0  0  0
   -2.5120   -2.7480   -0.5780 H   0  0  0  0  0
    3.3670   -1.3900   -1.9490 H   0  0  0  0  0
  1  2  2  0  0  0
  1  5  1  0  0  0
  1 12  1  0  0  0
  2  3  1  0  0  0
  2 13  1  0  0  0
  3  8  2  0  0  0
  3 14  1  0  0  0
  4  9  1  0  0  0
  4 15  1  0  0  0
  4 16  1  0  0  0
  5  6  1  0  0  0
  5  7  2  0  0  0
  6 17  1  0  0  0
  7  8  1  0  0  0
  7 18  1  0  0  0
  8  9  1  0  0  0
  9 10  1  0  0  0
  9 19  1  0  0  0
 10 11  2  0  0  0
 10 20  1  0  0  0
 12 21  1  0  0  0
 12 22  1  0  0  0
 12 23  1  0  0  0
 13 24  1  0  0  0
 20 25  1  0  0  0
M  END
$$$$
