MPV
  CCTOOLS-0919241036

 21 22  0  0  0  0  0  0  0  0999 V2000
   -1.0370   -1.0460   -0.0000 C   0  0  0  0  0
   -2.3490   -0.6930   -0.0000 C   0  0  0  0  0
   -2.4130    0.6640    0.0010 N   0  0  0  0  0
   -1.1040    1.1610    0.0010 N   0  0  0  0  0
   -0.2730    0.1380    0.0000 C   0  0  0  0  0
    1.2040    0.2180    0.0010 C   0  0  0  0  0
    2.2960   -1.1600    0.0000 S   0  0  0  0  0
    3.6940   -0.0930    0.0000 C   0  0  0  0  0
    3.2890    1.1810    0.0010 C   0  0  0  0  0
    1.9210    1.3590   -0.0040 C   0  0  0  0  0
   -3.6380    1.4680    0.0010 C   0  0  0  0  0
   -3.4340   -1.5660   -0.0010 N   0  0  0  0  0
   -0.6490   -2.0540    0.0030 H   0  0  0  0  0
    4.7240   -0.4170    0.0000 H   0  0  0  0  0
    3.9820    2.0090    0.0010 H   0  0  0  0  0
    1.4610    2.3360   -0.0080 H   0  0  0  0  0
   -3.9420    1.6670    1.0280 H   0  0  0  0  0
   -3.4530    2.4120   -0.5130 H   0  0  0  0  0
   -4.4300    0.9230   -0.5140 H   0  0  0  0  0
   -3.2850   -2.5240   -0.0020 H   0  0  0  0  0
   -4.3380   -1.2150   -0.0010 H   0  0  0  0  0
  1  2  2  0  0  0
  1  5  1  0  0  0
  1 13  1  0  0  0
  2  3  1  0  0  0
  2 12  1  0  0  0
  3  4  1  0  0  0
  3 11  1  0  0  0
  4  5  2  0  0  0
  5  6  1  0  0  0
  6  7  1  0  0  0
  6 10  2  0  0  0
  7  8  1  0  0  0
  8  9  2  0  0  0
  8 14  1  0  0  0
  9 10  1  0  0  0
  9 15  1  0  0  0
 10 16  1  0  0  0
 11 17  1  0  0  0
 11 18  1  0  0  0
 11 19  1  0  0  0
 12 20  1  0  0  0
 12 21  1  0  0  0
M  END
$$$$
