MRD
  CCTOOLS-0919241036

 22 21  0  0  1  0  0  0  0  0999 V2000
   -0.6830   -0.7730   -2.2950 C   0  0  0  0  0
   -0.0880   -0.0080   -1.1110 C   0  0  0  0  0
    1.3160   -0.2610   -1.0380 O   0  0  0  0  0
   -0.3270    1.4900   -1.3000 C   0  0  0  0  0
   -0.7580   -0.4720    0.1840 C   0  0  0  0  0
   -0.1630    0.2930    1.3670 C   0  0  0  0  0
    1.2410    0.0400    1.4410 O   0  0  0  0  0
   -0.8330   -0.1700    2.6630 C   0  0  0  0  0
   -0.2060   -0.4430   -3.2170 H   0  0  0  0  0
   -0.5130   -1.8410   -2.1590 H   0  0  0  0  0
   -1.7540   -0.5800   -2.3500 H   0  0  0  0  0
    1.4220   -1.2150   -0.9180 H   0  0  0  0  0
   -1.3980    1.6830   -1.3560 H   0  0  0  0  0
    0.0960    2.0350   -0.4570 H   0  0  0  0  0
    0.1490    1.8200   -2.2230 H   0  0  0  0  0
   -0.5880   -1.5400    0.3190 H   0  0  0  0  0
   -1.8290   -0.2790    0.1280 H   0  0  0  0  0
   -0.3330    1.3610    1.2320 H   0  0  0  0  0
    1.3470   -0.9130    1.5600 H   0  0  0  0  0
   -0.4090    0.3740    3.5060 H   0  0  0  0  0
   -1.9040    0.0220    2.6070 H   0  0  0  0  0
   -0.6630   -1.2380    2.7980 H   0  0  0  0  0
  1  2  1  0  0  0
  1  9  1  0  0  0
  1 10  1  0  0  0
  1 11  1  0  0  0
  2  3  1  0  0  0
  2  4  1  0  0  0
  2  5  1  0  0  0
  3 12  1  0  0  0
  4 13  1  0  0  0
  4 14  1  0  0  0
  4 15  1  0  0  0
  5  6  1  0  0  0
  5 16  1  0  0  0
  5 17  1  0  0  0
  6  7  1  0  0  0
  6  8  1  0  0  0
  6 18  1  0  0  0
  7 19  1  0  0  0
  8 20  1  0  0  0
  8 21  1  0  0  0
  8 22  1  0  0  0
M  END
$$$$
