MSE
  CCTOOLS-1004241121

 20 19  0  0  1  0  0  0  0  0999 V2000
    1.8690    0.1210   -1.9810 N   0  0  0  0  0
    0.5200   -0.4590   -1.9600 C   0  0  0  0  0
   -0.2320   -0.0280   -3.1920 C   0  0  0  0  0
    0.0110    1.0370   -3.7060 O   0  0  0  0  0
   -1.1730   -0.8280   -3.7170 O   0  0  0  0  0
   -0.2220    0.0230   -0.7130 C   0  0  0  0  0
    0.5410   -0.4140    0.5380 C   0  0  0  0  0
   -0.4100    0.2040    2.1350 SE  0  0  0  0  0
    0.8760   -0.5520    3.4050 C   0  0  0  0  0
    1.7530    1.1230   -1.9990 H   0  0  0  0  0
    2.2970   -0.1050   -1.0960 H   0  0  0  0  0
    0.5930   -1.5470   -1.9400 H   0  0  0  0  0
   -1.6560   -0.5510   -4.5080 H   0  0  0  0  0
   -1.2230   -0.4080   -0.6960 H   0  0  0  0  0
   -0.2960    1.1100   -0.7320 H   0  0  0  0  0
    1.5420    0.0160    0.5210 H   0  0  0  0  0
    0.6140   -1.5010    0.5570 H   0  0  0  0  0
    0.5540   -0.3320    4.4230 H   0  0  0  0  0
    0.9310   -1.6320    3.2670 H   0  0  0  0  0
    1.8580   -0.1130    3.2310 H   0  0  0  0  0
  1  2  1  0  0  0
  1 10  1  0  0  0
  1 11  1  0  0  0
  2  3  1  0  0  0
  2  6  1  0  0  0
  2 12  1  0  0  0
  3  4  2  0  0  0
  3  5  1  0  0  0
  5 13  1  0  0  0
  6  7  1  0  0  0
  6 14  1  0  0  0
  6 15  1  0  0  0
  7  8  1  0  0  0
  7 16  1  0  0  0
  7 17  1  0  0  0
  8  9  1  0  0  0
  9 18  1  0  0  0
  9 19  1  0  0  0
  9 20  1  0  0  0
M  END
$$$$
