MSR
  CCTOOLS-0919241036

 20 21  0  0  0  0  0  0  0  0999 V2000
    0.8070   -0.4630    0.5610 C   0  0  0  0  0
    0.7640   -0.4840    1.9550 C   0  0  0  0  0
    1.8000   -1.0790    2.6760 C   0  0  0  0  0
    1.7580   -1.0980    4.0360 O   0  0  0  0  0
    2.8780   -1.6520    2.0020 C   0  0  0  0  0
    2.9210   -1.6310    0.6080 C   0  0  0  0  0
    1.8850   -1.0360   -0.1120 C   0  0  0  0  0
    1.9270   -1.0150   -1.4950 N   0  0  0  0  0
    0.9890   -0.4710   -2.3330 C   0  0  0  0  0
    1.4680   -0.6950   -3.6020 C   0  0  0  0  0
    2.6690   -1.3590   -3.5680 N   0  0  0  0  0
    2.9170   -1.5360   -2.2900 C   0  0  0  0  0
   -0.0070    0.0050    0.0120 H   0  0  0  0  0
   -0.0790   -0.0350    2.4740 H   0  0  0  0  0
    1.0630   -0.5040    4.3600 H   0  0  0  0  0
    3.6880   -2.1170    2.5580 H   0  0  0  0  0
    3.7670   -2.0820    0.0960 H   0  0  0  0  0
    0.0930    0.0130   -1.9680 H   0  0  0  0  0
    1.0090   -0.4130   -4.5390 H   0  0  0  0  0
    3.7890   -2.0310   -1.8820 H   0  0  0  0  0
  1  2  2  0  0  0
  1  7  1  0  0  0
  1 13  1  0  0  0
  2  3  1  0  0  0
  2 14  1  0  0  0
  3  4  1  0  0  0
  3  5  2  0  0  0
  4 15  1  0  0  0
  5  6  1  0  0  0
  5 16  1  0  0  0
  6  7  2  0  0  0
  6 17  1  0  0  0
  7  8  1  0  0  0
  8  9  1  0  0  0
  8 12  1  0  0  0
  9 10  2  0  0  0
  9 18  1  0  0  0
 10 11  1  0  0  0
 10 19  1  0  0  0
 11 12  2  0  0  0
 12 20  1  0  0  0
M  END
$$$$
