MT6
  CCTOOLS-0919241036

 31 33  0  0  0  0  0  0  0  0999 V2000
   -1.6430   -0.1380    0.0060 C   0  0  0  0  0
   -0.6100    0.7980    0.0050 C   0  0  0  0  0
    1.8800    1.1660    0.0010 C   0  0  0  0  0
    0.7980    0.3480    0.0030 C   0  0  0  0  0
    5.2710   -0.5740   -0.0050 N   0  0  0  0  0
    4.7800   -1.8450    0.0010 C   0  0  0  0  0
    3.0470    0.2890    0.0000 C   0  0  0  0  0
   -3.8200   -1.8780   -0.0010 O   0  0  0  0  0
   -4.0680   -0.6890   -0.0020 C   0  0  0  0  0
   -5.3480   -0.2690   -0.0050 O   0  0  0  0  0
   -6.3780   -1.2920   -0.0090 C   0  0  0  0  0
   -2.9670    0.2950    0.0020 C   0  0  0  0  0
   -3.2510    1.6640    0.0020 C   0  0  0  0  0
   -2.2230    2.5850    0.0060 C   0  0  0  0  0
   -0.9090    2.1630    0.0040 C   0  0  0  0  0
    1.2020   -0.9380    0.0030 O   0  0  0  0  0
    2.5420   -1.0180    0.0070 C   0  0  0  0  0
    3.4540   -2.0920    0.0070 C   0  0  0  0  0
    4.4450    0.4930   -0.0060 C   0  0  0  0  0
    4.9020    1.6230   -0.0120 O   0  0  0  0  0
   -1.4170   -1.1940    0.0060 H   0  0  0  0  0
    1.8790    2.2460   -0.0030 H   0  0  0  0  0
    6.2310   -0.4340   -0.0090 H   0  0  0  0  0
    5.4700   -2.6760    0.0000 H   0  0  0  0  0
   -7.3600   -0.8190   -0.0120 H   0  0  0  0  0
   -6.2710   -1.9130   -0.8990 H   0  0  0  0  0
   -6.2770   -1.9130    0.8810 H   0  0  0  0  0
   -4.2770    2.0010   -0.0020 H   0  0  0  0  0
   -2.4480    3.6410    0.0050 H   0  0  0  0  0
   -0.1090    2.8890    0.0070 H   0  0  0  0  0
    3.0920   -3.1090    0.0120 H   0  0  0  0  0
  1 21  1  0  0  0
  2  1  1  0  0  0
  2  4  1  0  0  0
  3  7  1  0  0  0
  3 22  1  0  0  0
  4  3  2  0  0  0
  4 16  1  0  0  0
  5  6  1  0  0  0
  5 23  1  0  0  0
  6 24  1  0  0  0
  7 17  2  0  0  0
  7 19  1  0  0  0
  9  8  2  0  0  0
 10  9  1  0  0  0
 10 11  1  0  0  0
 11 25  1  0  0  0
 11 26  1  0  0  0
 11 27  1  0  0  0
 12  9  1  0  0  0
 12  1  2  0  0  0
 13 12  1  0  0  0
 13 28  1  0  0  0
 14 13  2  0  0  0
 14 15  1  0  0  0
 14 29  1  0  0  0
 15  2  2  0  0  0
 15 30  1  0  0  0
 16 17  1  0  0  0
 17 18  1  0  0  0
 18  6  2  0  0  0
 18 31  1  0  0  0
 19  5  1  0  0  0
 20 19  2  0  0  0
M  END
$$$$
