MTB
  CCTOOLS-0919241036

 40 41  0  0  0  0  0  0  0  0999 V2000
    0.6430   -0.0000   -2.6900 C   0  0  0  0  0
   -0.0910   -0.0050   -3.8940 C   0  0  0  0  0
    0.5870   -0.0020   -5.1120 C   0  0  0  0  0
    1.9670   -0.0080   -5.1340 C   0  0  0  0  0
    2.6880   -0.0100   -3.9520 C   0  0  0  0  0
    2.0380   -0.0060   -2.7350 C   0  0  0  0  0
    0.0210    0.0050    0.8080 C   0  0  0  0  0
    0.7520    0.0030    2.0010 C   0  0  0  0  0
    0.0930    0.0070    3.2100 C   0  0  0  0  0
   -1.2960    0.0070    3.2460 C   0  0  0  0  0
   -2.0270    0.0150    2.0630 C   0  0  0  0  0
   -1.3770    0.0110    0.8500 C   0  0  0  0  0
   -1.5650    0.0010   -3.8650 C   0  0  0  0  0
    0.8790    0.0050    4.4960 C   0  0  0  0  0
    2.3760   -0.0010    4.1780 C   0  0  0  0  0
    0.5240   -1.2410    5.3080 C   0  0  0  0  0
    0.5350    1.2570    5.3050 C   0  0  0  0  0
   -0.0060    0.0020   -1.4890 N   0  0  0  0  0
    0.6700    0.0010   -0.3910 N   0  0  0  0  0
   -2.1520   -0.0010   -2.8010 O   0  0  0  0  0
   -2.2620    0.0100   -5.0180 O   0  0  0  0  0
   -1.9410    0.0110    4.4400 O   0  0  0  0  0
    0.0320   -0.0000   -6.0390 H   0  0  0  0  0
    2.4880   -0.0100   -6.0800 H   0  0  0  0  0
    3.7680   -0.0140   -3.9820 H   0  0  0  0  0
    2.6080   -0.0070   -1.8170 H   0  0  0  0  0
    1.8320   -0.0010    1.9740 H   0  0  0  0  0
   -3.1060    0.0200    2.0970 H   0  0  0  0  0
   -1.9460    0.0120   -0.0670 H   0  0  0  0  0
    2.9440   -0.0020    5.1080 H   0  0  0  0  0
    2.6210   -0.8920    3.6010 H   0  0  0  0  0
    2.6280    0.8870    3.5990 H   0  0  0  0  0
    0.7690   -2.1320    4.7320 H   0  0  0  0  0
    1.0930   -1.2420    6.2380 H   0  0  0  0  0
   -0.5410   -1.2360    5.5340 H   0  0  0  0  0
    0.7880    2.1450    4.7260 H   0  0  0  0  0
   -0.5300    1.2620    5.5310 H   0  0  0  0  0
    1.1030    1.2560    6.2350 H   0  0  0  0  0
   -3.2290    0.0140   -4.9990 H   0  0  0  0  0
   -2.0820   -0.9130    4.6850 H   0  0  0  0  0
  1  2  1  0  0  0
  1  6  2  0  0  0
  1 18  1  0  0  0
  2  3  2  0  0  0
  2 13  1  0  0  0
  3  4  1  0  0  0
  3 23  1  0  0  0
  4  5  2  0  0  0
  4 24  1  0  0  0
  5  6  1  0  0  0
  5 25  1  0  0  0
  6 26  1  0  0  0
  7  8  1  0  0  0
  7 12  2  0  0  0
  7 19  1  0  0  0
  8  9  2  0  0  0
  8 27  1  0  0  0
  9 10  1  0  0  0
  9 14  1  0  0  0
 10 11  2  0  0  0
 10 22  1  0  0  0
 11 12  1  0  0  0
 11 28  1  0  0  0
 12 29  1  0  0  0
 13 20  2  0  0  0
 13 21  1  0  0  0
 14 15  1  0  0  0
 14 16  1  0  0  0
 14 17  1  0  0  0
 15 30  1  0  0  0
 15 31  1  0  0  0
 15 32  1  0  0  0
 16 33  1  0  0  0
 16 34  1  0  0  0
 16 35  1  0  0  0
 17 36  1  0  0  0
 17 37  1  0  0  0
 17 38  1  0  0  0
 18 19  2  0  0  0
 21 39  1  0  0  0
 22 40  1  0  0  0
M  END
$$$$
