MU0
  CCTOOLS-0919241036

 93 97  0  0  1  0  0  0  0  0999 V2000
    4.0750    1.6980    0.9230 O   0  0  0  0  0
    3.5230    1.2250   -0.0480 C   0  0  0  0  0
    4.3320    0.5120   -1.1010 C   0  0  0  0  0
    5.7440    0.5030   -0.7420 O   0  0  0  0  0
    6.1600   -0.7600   -0.6000 C   0  0  0  0  0
    7.3010   -1.0530   -0.3020 O   0  0  0  0  0
    5.2040   -1.6730   -0.8170 N   0  0  0  0  0
    3.9510   -0.9800   -1.1550 C   0  0  0  0  0
    5.3700   -3.0610   -0.7360 C   0  0  0  0  0
    4.2980   -3.9060   -0.9910 C   0  0  0  0  0
    4.4660   -5.2750   -0.9100 C   0  0  0  0  0
    5.6990   -5.8030   -0.5750 C   0  0  0  0  0
    6.7680   -4.9640   -0.3210 C   0  0  0  0  0
    6.6090   -3.5950   -0.4060 C   0  0  0  0  0
    2.1860    1.3330   -0.1830 N   0  0  0  0  0
    1.4000    2.0210    0.8440 C   0  0  0  0  0
    1.4010    3.5250    0.5640 C   0  0  0  0  0
    2.8020    4.0610    0.7100 C   0  0  0  0  0
    3.6470    4.0920   -0.3840 C   0  0  0  0  0
    4.9320    4.5840   -0.2510 C   0  0  0  0  0
    3.2400    4.5280    1.9350 C   0  0  0  0  0
    4.5250    5.0200    2.0680 C   0  0  0  0  0
    5.3720    5.0450    0.9750 C   0  0  0  0  0
   -0.0380    1.4990    0.8190 C   0  0  0  0  0
   -0.6130    1.7450   -0.4660 O   0  0  0  0  0
   -0.0400   -0.0050    1.0980 C   0  0  0  0  0
   -1.4810   -0.4910    1.2660 C   0  0  0  0  0
   -2.1770   -0.4090   -0.0210 N   0  0  0  0  0
   -3.4780   -0.0600   -0.0620 C   0  0  0  0  0
   -4.0510    0.2660    0.9550 O   0  0  0  0  0
   -4.2200   -0.0740   -1.3740 C   0  0  0  0  0
   -3.6840    1.0390   -2.2760 C   0  0  0  0  0
   -2.2460    0.7160   -2.6850 C   0  0  0  0  0
   -4.5580    1.1480   -3.5270 C   0  0  0  0  0
   -5.6490    0.1410   -1.1290 N   0  0  0  0  0
   -6.6090   -0.8850   -1.5400 C   0  0  0  0  0
   -7.9490   -0.2170   -1.8670 C   0  0  0  0  0
   -6.0490    1.2710   -0.5270 C   0  0  0  0  0
   -5.2090    2.0830   -0.1920 O   0  0  0  0  0
   -7.3400    1.5400   -0.2810 N   0  0  0  0  0
   -8.3980    0.5980   -0.6490 C   0  0  0  0  0
   -1.4770   -1.9420    1.7510 C   0  0  0  0  0
   -2.8900   -2.3820    2.0330 C   0  0  0  0  0
   -3.4330   -2.2000    3.2920 C   0  0  0  0  0
   -4.7290   -2.6030    3.5500 C   0  0  0  0  0
   -5.4840   -3.1880    2.5510 C   0  0  0  0  0
   -4.9420   -3.3690    1.2920 C   0  0  0  0  0
   -3.6470   -2.9620    1.0320 C   0  0  0  0  0
    4.1860    0.9790   -2.0750 H   0  0  0  0  0
    3.1790   -1.2060   -0.4200 H   0  0  0  0  0
    3.6200   -1.2550   -2.1570 H   0  0  0  0  0
    3.3350   -3.4940   -1.2520 H   0  0  0  0  0
    3.6320   -5.9320   -1.1070 H   0  0  0  0  0
    5.8270   -6.8740   -0.5120 H   0  0  0  0  0
    7.7300   -5.3800   -0.0600 H   0  0  0  0  0
    7.4460   -2.9400   -0.2120 H   0  0  0  0  0
    1.7450    0.9540   -0.9600 H   0  0  0  0  0
    1.8380    1.8330    1.8240 H   0  0  0  0  0
    1.0460    3.7070   -0.4500 H   0  0  0  0  0
    0.7450    4.0270    1.2750 H   0  0  0  0  0
    3.3040    3.7310   -1.3420 H   0  0  0  0  0
    5.5930    4.6070   -1.1050 H   0  0  0  0  0
    2.5780    4.5090    2.7880 H   0  0  0  0  0
    4.8670    5.3850    3.0250 H   0  0  0  0  0
    6.3760    5.4300    1.0790 H   0  0  0  0  0
   -0.6240    2.0110    1.5830 H   0  0  0  0  0
   -0.1690    1.2830   -1.1900 H   0  0  0  0  0
    0.4260   -0.5300    0.2640 H   0  0  0  0  0
    0.5190   -0.2060    2.0120 H   0  0  0  0  0
   -1.9930    0.1350    1.9960 H   0  0  0  0  0
   -1.7010   -0.6050   -0.8430 H   0  0  0  0  0
   -4.0770   -1.0380   -1.8620 H   0  0  0  0  0
   -3.7040    1.9860   -1.7350 H   0  0  0  0  0
   -2.2290   -0.2170   -3.2480 H   0  0  0  0  0
   -1.8550    1.5220   -3.3060 H   0  0  0  0  0
   -1.6290    0.6130   -1.7930 H   0  0  0  0  0
   -5.5830    1.3780   -3.2350 H   0  0  0  0  0
   -4.1770    1.9410   -4.1690 H   0  0  0  0  0
   -4.5380    0.2010   -4.0670 H   0  0  0  0  0
   -6.2340   -1.4020   -2.4230 H   0  0  0  0  0
   -6.7470   -1.6000   -0.7290 H   0  0  0  0  0
   -7.8280    0.4440   -2.7250 H   0  0  0  0  0
   -8.6930   -0.9800   -2.0920 H   0  0  0  0  0
   -7.5770    2.3760    0.1490 H   0  0  0  0  0
   -9.3080    1.1450   -0.8920 H   0  0  0  0  0
   -8.5890   -0.0740    0.1880 H   0  0  0  0  0
   -1.0440   -2.5820    0.9820 H   0  0  0  0  0
   -0.8840   -2.0190    2.6620 H   0  0  0  0  0
   -2.8430   -1.7430    4.0730 H   0  0  0  0  0
   -5.1530   -2.4610    4.5340 H   0  0  0  0  0
   -6.4970   -3.5030    2.7530 H   0  0  0  0  0
   -5.5310   -3.8260    0.5110 H   0  0  0  0  0
   -3.2240   -3.1000    0.0480 H   0  0  0  0  0
  1  2  2  0  0  0
  2  3  1  0  0  0
  2 15  1  0  0  0
  3  8  1  0  0  0
  3  4  1  0  0  0
  3 49  1  0  0  0
  4  5  1  0  0  0
  5  7  1  0  0  0
  5  6  2  0  0  0
  7  8  1  0  0  0
  7  9  1  0  0  0
  8 50  1  0  0  0
  8 51  1  0  0  0
  9 14  2  0  0  0
  9 10  1  0  0  0
 10 11  2  0  0  0
 10 52  1  0  0  0
 11 12  1  0  0  0
 11 53  1  0  0  0
 12 13  2  0  0  0
 12 54  1  0  0  0
 13 14  1  0  0  0
 13 55  1  0  0  0
 14 56  1  0  0  0
 15 16  1  0  0  0
 15 57  1  0  0  0
 16 24  1  0  0  0
 16 17  1  0  0  0
 16 58  1  0  0  0
 17 18  1  0  0  0
 17 59  1  0  0  0
 17 60  1  0  0  0
 18 19  1  0  0  0
 18 21  2  0  0  0
 19 20  2  0  0  0
 19 61  1  0  0  0
 20 23  1  0  0  0
 20 62  1  0  0  0
 21 22  1  0  0  0
 21 63  1  0  0  0
 22 23  2  0  0  0
 22 64  1  0  0  0
 23 65  1  0  0  0
 24 26  1  0  0  0
 24 25  1  0  0  0
 24 66  1  0  0  0
 25 67  1  0  0  0
 26 27  1  0  0  0
 26 68  1  0  0  0
 26 69  1  0  0  0
 27 42  1  0  0  0
 27 28  1  0  0  0
 27 70  1  0  0  0
 28 29  1  0  0  0
 28 71  1  0  0  0
 29 30  2  0  0  0
 29 31  1  0  0  0
 31 35  1  0  0  0
 31 32  1  0  0  0
 31 72  1  0  0  0
 32 34  1  0  0  0
 32 33  1  0  0  0
 32 73  1  0  0  0
 33 74  1  0  0  0
 33 75  1  0  0  0
 33 76  1  0  0  0
 34 77  1  0  0  0
 34 78  1  0  0  0
 34 79  1  0  0  0
 35 36  1  0  0  0
 35 38  1  0  0  0
 36 37  1  0  0  0
 36 80  1  0  0  0
 36 81  1  0  0  0
 37 41  1  0  0  0
 37 82  1  0  0  0
 37 83  1  0  0  0
 38 40  1  0  0  0
 38 39  2  0  0  0
 40 41  1  0  0  0
 40 84  1  0  0  0
 41 85  1  0  0  0
 41 86  1  0  0  0
 42 43  1  0  0  0
 42 87  1  0  0  0
 42 88  1  0  0  0
 43 48  2  0  0  0
 43 44  1  0  0  0
 44 45  2  0  0  0
 44 89  1  0  0  0
 45 46  1  0  0  0
 45 90  1  0  0  0
 46 47  2  0  0  0
 46 91  1  0  0  0
 47 48  1  0  0  0
 47 92  1  0  0  0
 48 93  1  0  0  0
M  END
$$$$
