MU1
  CCTOOLS-0919241036

 92 95  0  0  1  0  0  0  0  0999 V2000
   -6.9830    1.0760    3.2310 O   0  0  0  0  0
   -7.4310    0.5800    2.2180 C   0  0  0  0  0
   -8.9220    0.4650    2.0310 C   0  0  0  0  0
   -6.5950    0.1380    1.2580 N   0  0  0  0  0
   -5.1450    0.2550    1.4380 C   0  0  0  0  0
   -4.6310   -0.9450    2.2340 C   0  0  0  0  0
   -4.7700   -2.2140    1.3910 C   0  0  0  0  0
   -3.1590   -0.7280    2.5900 C   0  0  0  0  0
   -4.4730    0.2890    0.0890 C   0  0  0  0  0
   -5.0960   -0.0160   -0.9060 O   0  0  0  0  0
   -3.1810    0.6580   -0.0110 N   0  0  0  0  0
   -2.5120    0.6380   -1.3140 C   0  0  0  0  0
   -2.2510    2.0740   -1.7750 C   0  0  0  0  0
   -3.5650    2.7730   -2.0110 C   0  0  0  0  0
   -4.1610    2.7210   -3.2580 C   0  0  0  0  0
   -5.3660    3.3620   -3.4750 C   0  0  0  0  0
   -5.9760    4.0540   -2.4450 C   0  0  0  0  0
   -5.3810    4.1050   -1.1990 C   0  0  0  0  0
   -4.1780    3.4600   -0.9800 C   0  0  0  0  0
   -1.1830   -0.1090   -1.1940 C   0  0  0  0  0
   -1.4530   -1.5940   -0.9480 C   0  0  0  0  0
   -2.0960   -1.7590    0.3170 O   0  0  0  0  0
   -0.1280   -2.3610   -0.9500 C   0  0  0  0  0
   -0.3980   -3.8460   -0.7050 C   0  0  0  0  0
    0.8900   -4.6190   -0.8290 C   0  0  0  0  0
    1.6870   -4.8170    0.2830 C   0  0  0  0  0
    2.8680   -5.5250    0.1690 C   0  0  0  0  0
    3.2530   -6.0350   -1.0560 C   0  0  0  0  0
    2.4560   -5.8380   -2.1680 C   0  0  0  0  0
    1.2720   -5.1330   -2.0530 C   0  0  0  0  0
    0.7390   -1.8400    0.1090 N   0  0  0  0  0
    2.0770   -1.9680    0.0090 C   0  0  0  0  0
    2.5630   -2.5130   -0.9590 O   0  0  0  0  0
    2.9690   -1.4320    1.0990 C   0  0  0  0  0
    2.9370    0.1080    1.1150 C   0  0  0  0  0
    4.3630   -1.7530    0.8220 O   0  0  0  0  0
    5.0640   -0.6210    0.6910 C   0  0  0  0  0
    6.2560   -0.6020    0.4560 O   0  0  0  0  0
    4.3310    0.4910    0.8430 N   0  0  0  0  0
    4.8130    1.8020    0.7560 C   0  0  0  0  0
    3.9460    2.8740    0.9330 C   0  0  0  0  0
    4.4160    4.1720    0.8490 C   0  0  0  0  0
    5.7490    4.4130    0.5870 C   0  0  0  0  0
    6.1550    2.0300    0.4990 C   0  0  0  0  0
    6.6300    3.3420    0.4070 C   0  0  0  0  0
    8.0530    3.5940    0.1280 C   0  0  0  0  0
    8.8150    2.6640   -0.0280 O   0  0  0  0  0
    8.5630    5.0090    0.0350 C   0  0  0  0  0
   -9.2970    1.3620    1.5400 H   0  0  0  0  0
   -9.1440   -0.4070    1.4150 H   0  0  0  0  0
   -9.4020    0.3550    3.0030 H   0  0  0  0  0
   -6.9520   -0.2590    0.4490 H   0  0  0  0  0
   -4.9200    1.1740    1.9790 H   0  0  0  0  0
   -5.2140   -1.0510    3.1490 H   0  0  0  0  0
   -4.1870   -2.1080    0.4760 H   0  0  0  0  0
   -4.4030   -3.0700    1.9590 H   0  0  0  0  0
   -5.8190   -2.3690    1.1380 H   0  0  0  0  0
   -2.7260   -1.6670    2.9360 H   0  0  0  0  0
   -2.6190   -0.3830    1.7090 H   0  0  0  0  0
   -3.0820    0.0200    3.3790 H   0  0  0  0  0
   -2.6940    0.9370    0.7800 H   0  0  0  0  0
   -3.1480    0.1330   -2.0410 H   0  0  0  0  0
   -1.6900    2.6060   -1.0060 H   0  0  0  0  0
   -1.6760    2.0590   -2.7000 H   0  0  0  0  0
   -3.6840    2.1800   -4.0620 H   0  0  0  0  0
   -5.8320    3.3220   -4.4490 H   0  0  0  0  0
   -6.9180    4.5550   -2.6150 H   0  0  0  0  0
   -5.8570    4.6460   -0.3940 H   0  0  0  0  0
   -3.7140    3.4970   -0.0060 H   0  0  0  0  0
   -0.6150    0.0100   -2.1160 H   0  0  0  0  0
   -0.6110    0.2990   -0.3600 H   0  0  0  0  0
   -2.0980   -1.9820   -1.7370 H   0  0  0  0  0
   -1.5570   -1.4840    1.0710 H   0  0  0  0  0
    0.3620   -2.2350   -1.9160 H   0  0  0  0  0
   -0.8080   -3.9810    0.2970 H   0  0  0  0  0
   -1.1140   -4.2120   -1.4410 H   0  0  0  0  0
    1.3860   -4.4180    1.2410 H   0  0  0  0  0
    3.4910   -5.6790    1.0380 H   0  0  0  0  0
    4.1770   -6.5880   -1.1450 H   0  0  0  0  0
    2.7570   -6.2360   -3.1260 H   0  0  0  0  0
    0.6470   -4.9820   -2.9210 H   0  0  0  0  0
    0.3500   -1.4040    0.8840 H   0  0  0  0  0
    2.6700   -1.8330    2.0670 H   0  0  0  0  0
    2.2770    0.4860    0.3350 H   0  0  0  0  0
    2.6240    0.4740    2.0930 H   0  0  0  0  0
    2.9010    2.6930    1.1370 H   0  0  0  0  0
    3.7370    5.0000    0.9880 H   0  0  0  0  0
    6.1120    5.4280    0.5220 H   0  0  0  0  0
    6.8300    1.1990    0.3650 H   0  0  0  0  0
    7.7400    5.7040    0.2020 H   0  0  0  0  0
    9.3310    5.1690    0.7920 H   0  0  0  0  0
    8.9870    5.1790   -0.9550 H   0  0  0  0  0
  1  2  2  0  0  0
  2  4  1  0  0  0
  2  3  1  0  0  0
  3 49  1  0  0  0
  3 50  1  0  0  0
  3 51  1  0  0  0
  4  5  1  0  0  0
  4 52  1  0  0  0
  5  9  1  0  0  0
  5  6  1  0  0  0
  5 53  1  0  0  0
  6  7  1  0  0  0
  6  8  1  0  0  0
  6 54  1  0  0  0
  7 55  1  0  0  0
  7 56  1  0  0  0
  7 57  1  0  0  0
  8 58  1  0  0  0
  8 59  1  0  0  0
  8 60  1  0  0  0
  9 11  1  0  0  0
  9 10  2  0  0  0
 11 12  1  0  0  0
 11 61  1  0  0  0
 12 20  1  0  0  0
 12 13  1  0  0  0
 12 62  1  0  0  0
 13 14  1  0  0  0
 13 63  1  0  0  0
 13 64  1  0  0  0
 14 19  2  0  0  0
 14 15  1  0  0  0
 15 16  2  0  0  0
 15 65  1  0  0  0
 16 17  1  0  0  0
 16 66  1  0  0  0
 17 18  2  0  0  0
 17 67  1  0  0  0
 18 19  1  0  0  0
 18 68  1  0  0  0
 19 69  1  0  0  0
 20 21  1  0  0  0
 20 70  1  0  0  0
 20 71  1  0  0  0
 21 22  1  0  0  0
 21 23  1  0  0  0
 21 72  1  0  0  0
 22 73  1  0  0  0
 23 24  1  0  0  0
 23 31  1  0  0  0
 23 74  1  0  0  0
 24 25  1  0  0  0
 24 75  1  0  0  0
 24 76  1  0  0  0
 25 26  1  0  0  0
 25 30  2  0  0  0
 26 27  2  0  0  0
 26 77  1  0  0  0
 27 28  1  0  0  0
 27 78  1  0  0  0
 28 29  2  0  0  0
 28 79  1  0  0  0
 29 30  1  0  0  0
 29 80  1  0  0  0
 30 81  1  0  0  0
 31 32  1  0  0  0
 31 82  1  0  0  0
 32 34  1  0  0  0
 32 33  2  0  0  0
 34 36  1  0  0  0
 34 35  1  0  0  0
 34 83  1  0  0  0
 35 39  1  0  0  0
 35 84  1  0  0  0
 35 85  1  0  0  0
 36 37  1  0  0  0
 37 38  2  0  0  0
 37 39  1  0  0  0
 39 40  1  0  0  0
 40 41  1  0  0  0
 40 44  2  0  0  0
 41 42  2  0  0  0
 41 86  1  0  0  0
 42 43  1  0  0  0
 42 87  1  0  0  0
 43 45  2  0  0  0
 43 88  1  0  0  0
 44 45  1  0  0  0
 44 89  1  0  0  0
 45 46  1  0  0  0
 46 48  1  0  0  0
 46 47  2  0  0  0
 48 90  1  0  0  0
 48 91  1  0  0  0
 48 92  1  0  0  0
M  END
$$$$
