MUI
  CCTOOLS-0919241036

 84 87  0  0  1  0  0  0  0  0999 V2000
    5.5710   -9.1230    0.0440 O   0  0  0  0  0
    4.7620   -8.5330   -0.6760 C   0  0  0  0  0
    4.2520   -9.2590   -1.8870 C   0  0  0  0  0
    4.2620   -7.1870   -0.4400 C   0  0  0  0  0
    3.3440   -6.6190   -1.3230 C   0  0  0  0  0
    2.8670   -5.3280   -1.0980 C   0  0  0  0  0
    4.7030   -6.4640    0.6680 C   0  0  0  0  0
    4.2260   -5.1730    0.8930 C   0  0  0  0  0
    3.3050   -4.5990    0.0110 C   0  0  0  0  0
    2.8180   -3.2790    0.2400 N   0  0  0  0  0
    3.1490   -2.4240    1.2860 C   0  0  0  0  0
    3.9010   -2.6090    2.2330 O   0  0  0  0  0
    2.4590   -1.2420    1.1450 O   0  0  0  0  0
    1.8180   -2.6690   -0.5940 C   0  0  0  0  0
    1.7770   -1.2410   -0.1080 C   0  0  0  0  0
    0.3880   -0.7500    0.1390 C   0  0  0  0  0
    0.0380   -0.4770    1.2820 O   0  0  0  0  0
   -0.3830   -0.6560   -1.0010 N   0  0  0  0  0
   -1.7590   -0.2030   -0.9890 C   0  0  0  0  0
   -2.0480    0.5460   -2.3050 C   0  0  0  0  0
   -1.4430    1.9260   -2.3680 C   0  0  0  0  0
   -2.1750    3.0110   -1.9140 C   0  0  0  0  0
   -1.6160    4.2880   -1.9730 C   0  0  0  0  0
   -0.3310    4.4630   -2.4860 C   0  0  0  0  0
    0.3950    3.3620   -2.9400 C   0  0  0  0  0
   -0.1640    2.0850   -2.8810 C   0  0  0  0  0
   -2.7200   -1.3840   -0.7260 C   0  0  0  0  0
   -2.4160   -1.9620    0.5430 O   0  0  0  0  0
   -2.6290   -2.4620   -1.8100 C   0  0  0  0  0
   -3.5570   -3.5720   -1.4920 N   0  0  0  0  0
   -2.8890   -4.8980   -1.5670 C   0  0  0  0  0
   -1.8970   -5.1010   -0.4150 C   0  0  0  0  0
   -2.5700   -5.0010    0.9550 C   0  0  0  0  0
   -1.1310   -6.4180   -0.5430 C   0  0  0  0  0
   -5.1800   -3.4590   -2.0700 S   0  0  0  0  0
   -5.6000   -2.0700   -2.0540 O   0  0  0  0  0
   -6.0000   -4.4600   -1.4140 O   0  0  0  0  0
   -5.0190   -3.9400   -3.7670 C   0  0  0  0  0
   -4.7680   -2.9710   -4.7200 C   0  0  0  0  0
   -4.6430   -3.3500   -6.0570 C   0  0  0  0  0
   -4.7710   -4.6920   -6.4160 C   0  0  0  0  0
   -4.6500   -5.0620   -7.7200 O   0  0  0  0  0
   -4.3910   -4.0270   -8.6670 C   0  0  0  0  0
   -5.0250   -5.6550   -5.4380 C   0  0  0  0  0
   -5.1500   -5.2750   -4.1020 C   0  0  0  0  0
    4.4040   -8.7110   -2.8300 H   0  0  0  0  0
    3.1840   -9.5170   -1.8220 H   0  0  0  0  0
    4.7570  -10.2270   -2.0590 H   0  0  0  0  0
    2.9940   -7.1730   -2.1910 H   0  0  0  0  0
    2.1520   -4.8960   -1.7940 H   0  0  0  0  0
    5.4200   -6.8960    1.3630 H   0  0  0  0  0
    4.5770   -4.6190    1.7600 H   0  0  0  0  0
    0.8690   -3.1990   -0.4560 H   0  0  0  0  0
    2.1110   -2.7320   -1.6480 H   0  0  0  0  0
    2.2820   -0.5500   -0.7890 H   0  0  0  0  0
    0.0330   -0.9150   -1.8890 H   0  0  0  0  0
   -1.8310    0.4980   -0.1480 H   0  0  0  0  0
   -1.7160   -0.0520   -3.1640 H   0  0  0  0  0
   -3.1340    0.6500   -2.4380 H   0  0  0  0  0
   -3.1770    2.8850   -1.5120 H   0  0  0  0  0
   -2.1810    5.1450   -1.6190 H   0  0  0  0  0
    0.1050    5.4570   -2.5320 H   0  0  0  0  0
    1.3960    3.4980   -3.3390 H   0  0  0  0  0
    0.4090    1.2330   -3.2370 H   0  0  0  0  0
   -3.7480   -1.0060   -0.6740 H   0  0  0  0  0
   -2.8240   -1.3900    1.2100 H   0  0  0  0  0
   -1.6200   -2.8820   -1.8770 H   0  0  0  0  0
   -2.9140   -2.0610   -2.7880 H   0  0  0  0  0
   -2.3790   -4.9750   -2.5330 H   0  0  0  0  0
   -3.6640   -5.6720   -1.5370 H   0  0  0  0  0
   -1.1630   -4.2870   -0.4770 H   0  0  0  0  0
   -3.2690   -5.8250    1.1270 H   0  0  0  0  0
   -1.8200   -5.0300    1.7530 H   0  0  0  0  0
   -3.1210   -4.0590    1.0500 H   0  0  0  0  0
   -1.7920   -7.2850   -0.4390 H   0  0  0  0  0
   -0.3600   -6.4920    0.2320 H   0  0  0  0  0
   -0.6320   -6.4850   -1.5160 H   0  0  0  0  0
   -4.6660   -1.9230   -4.4510 H   0  0  0  0  0
   -4.4460   -2.5960   -6.8130 H   0  0  0  0  0
   -4.3850   -3.0600   -8.1590 H   0  0  0  0  0
   -5.1630   -4.0390   -9.4410 H   0  0  0  0  0
   -3.4150   -4.2010   -9.1260 H   0  0  0  0  0
   -5.1260   -6.7010   -5.7120 H   0  0  0  0  0
   -5.3480   -6.0330   -3.3490 H   0  0  0  0  0
  1  2  2  0  0  0
  2  3  1  0  0  0
  2  4  1  0  0  0
  3 46  1  0  0  0
  3 47  1  0  0  0
  3 48  1  0  0  0
  4  5  2  0  0  0
  4  7  1  0  0  0
  5  6  1  0  0  0
  5 49  1  0  0  0
  6  9  2  0  0  0
  6 50  1  0  0  0
  7  8  2  0  0  0
  7 51  1  0  0  0
  8  9  1  0  0  0
  8 52  1  0  0  0
  9 10  1  0  0  0
 10 14  1  0  0  0
 10 11  1  0  0  0
 11 12  2  0  0  0
 11 13  1  0  0  0
 13 15  1  0  0  0
 14 15  1  0  0  0
 14 53  1  0  0  0
 14 54  1  0  0  0
 15 16  1  0  0  0
 15 55  1  0  0  0
 16 17  2  0  0  0
 16 18  1  0  0  0
 18 19  1  0  0  0
 18 56  1  0  0  0
 19 20  1  0  0  0
 19 27  1  0  0  0
 19 57  1  0  0  0
 20 21  1  0  0  0
 20 58  1  0  0  0
 20 59  1  0  0  0
 21 22  2  0  0  0
 21 26  1  0  0  0
 22 23  1  0  0  0
 22 60  1  0  0  0
 23 24  2  0  0  0
 23 61  1  0  0  0
 24 25  1  0  0  0
 24 62  1  0  0  0
 25 26  2  0  0  0
 25 63  1  0  0  0
 26 64  1  0  0  0
 27 29  1  0  0  0
 27 28  1  0  0  0
 27 65  1  0  0  0
 28 66  1  0  0  0
 29 30  1  0  0  0
 29 67  1  0  0  0
 29 68  1  0  0  0
 30 35  1  0  0  0
 30 31  1  0  0  0
 31 32  1  0  0  0
 31 69  1  0  0  0
 31 70  1  0  0  0
 32 34  1  0  0  0
 32 33  1  0  0  0
 32 71  1  0  0  0
 33 72  1  0  0  0
 33 73  1  0  0  0
 33 74  1  0  0  0
 34 75  1  0  0  0
 34 76  1  0  0  0
 34 77  1  0  0  0
 35 37  2  0  0  0
 35 36  2  0  0  0
 35 38  1  0  0  0
 38 45  2  0  0  0
 38 39  1  0  0  0
 39 40  2  0  0  0
 39 78  1  0  0  0
 40 41  1  0  0  0
 40 79  1  0  0  0
 41 44  2  0  0  0
 41 42  1  0  0  0
 42 43  1  0  0  0
 43 80  1  0  0  0
 43 81  1  0  0  0
 43 82  1  0  0  0
 44 45  1  0  0  0
 44 83  1  0  0  0
 45 84  1  0  0  0
M  END
$$$$
