MUT
  CCTOOLS-0919241036

 84 87  0  0  1  0  0  0  0  0999 V2000
   -5.6000   -2.0700   -2.0540 O   0  0  0  0  0
   -5.1800   -3.4590   -2.0700 S   0  0  0  0  0
   -6.0000   -4.4600   -1.4140 O   0  0  0  0  0
   -5.0190   -3.9400   -3.7670 C   0  0  0  0  0
   -4.7680   -2.9710   -4.7200 C   0  0  0  0  0
   -4.6430   -3.3500   -6.0570 C   0  0  0  0  0
   -4.7710   -4.6920   -6.4160 C   0  0  0  0  0
   -4.6500   -5.0620   -7.7200 O   0  0  0  0  0
   -4.3910   -4.0270   -8.6670 C   0  0  0  0  0
   -5.0250   -5.6550   -5.4380 C   0  0  0  0  0
   -5.1500   -5.2750   -4.1020 C   0  0  0  0  0
   -3.5570   -3.5720   -1.4920 N   0  0  0  0  0
   -2.8890   -4.8980   -1.5670 C   0  0  0  0  0
   -1.8970   -5.1010   -0.4150 C   0  0  0  0  0
   -2.5700   -5.0010    0.9550 C   0  0  0  0  0
   -1.1310   -6.4180   -0.5430 C   0  0  0  0  0
   -2.6290   -2.4620   -1.8100 C   0  0  0  0  0
   -2.7200   -1.3840   -0.7260 C   0  0  0  0  0
   -2.4160   -1.9620    0.5430 O   0  0  0  0  0
   -1.7590   -0.2030   -0.9890 C   0  0  0  0  0
   -2.0480    0.5460   -2.3050 C   0  0  0  0  0
   -1.4430    1.9260   -2.3680 C   0  0  0  0  0
   -2.1750    3.0110   -1.9140 C   0  0  0  0  0
   -1.6160    4.2880   -1.9730 C   0  0  0  0  0
   -0.3310    4.4630   -2.4860 C   0  0  0  0  0
    0.3950    3.3620   -2.9400 C   0  0  0  0  0
   -0.1640    2.0850   -2.8810 C   0  0  0  0  0
   -0.3830   -0.6560   -1.0010 N   0  0  0  0  0
    0.3880   -0.7500    0.1390 C   0  0  0  0  0
    0.0380   -0.4770    1.2820 O   0  0  0  0  0
    1.7770   -1.2410   -0.1080 C   0  0  0  0  0
    2.4590   -1.2420    1.1450 O   0  0  0  0  0
    3.1490   -2.4240    1.2860 C   0  0  0  0  0
    3.9010   -2.6090    2.2330 O   0  0  0  0  0
    1.8180   -2.6690   -0.5940 C   0  0  0  0  0
    2.8180   -3.2790    0.2400 N   0  0  0  0  0
    3.3050   -4.5990    0.0110 C   0  0  0  0  0
    4.2260   -5.1730    0.8940 C   0  0  0  0  0
    4.7030   -6.4640    0.6690 C   0  0  0  0  0
    4.2630   -7.1870   -0.4390 C   0  0  0  0  0
    2.8680   -5.3290   -1.0990 C   0  0  0  0  0
    3.3460   -6.6200   -1.3230 C   0  0  0  0  0
    2.8870   -7.3750   -2.4780 C   0  0  0  0  0
    2.0830   -6.9640   -3.3180 O   0  0  0  0  0
    3.4380   -8.7590   -2.6660 C   0  0  0  0  0
   -4.6660   -1.9230   -4.4510 H   0  0  0  0  0
   -4.4460   -2.5960   -6.8130 H   0  0  0  0  0
   -4.3850   -3.0600   -8.1590 H   0  0  0  0  0
   -5.1630   -4.0390   -9.4410 H   0  0  0  0  0
   -3.4150   -4.2010   -9.1260 H   0  0  0  0  0
   -5.1260   -6.7010   -5.7120 H   0  0  0  0  0
   -5.3480   -6.0330   -3.3490 H   0  0  0  0  0
   -2.3790   -4.9750   -2.5330 H   0  0  0  0  0
   -3.6640   -5.6720   -1.5370 H   0  0  0  0  0
   -1.1630   -4.2870   -0.4770 H   0  0  0  0  0
   -3.2690   -5.8250    1.1270 H   0  0  0  0  0
   -1.8200   -5.0300    1.7530 H   0  0  0  0  0
   -3.1210   -4.0590    1.0500 H   0  0  0  0  0
   -1.7920   -7.2850   -0.4390 H   0  0  0  0  0
   -0.3600   -6.4920    0.2320 H   0  0  0  0  0
   -0.6320   -6.4850   -1.5160 H   0  0  0  0  0
   -1.6200   -2.8820   -1.8770 H   0  0  0  0  0
   -2.9140   -2.0610   -2.7880 H   0  0  0  0  0
   -3.7480   -1.0060   -0.6740 H   0  0  0  0  0
   -2.8240   -1.3900    1.2100 H   0  0  0  0  0
   -1.8310    0.4980   -0.1480 H   0  0  0  0  0
   -1.7160   -0.0520   -3.1640 H   0  0  0  0  0
   -3.1340    0.6500   -2.4380 H   0  0  0  0  0
   -3.1770    2.8850   -1.5120 H   0  0  0  0  0
   -2.1810    5.1450   -1.6190 H   0  0  0  0  0
    0.1050    5.4570   -2.5320 H   0  0  0  0  0
    1.3960    3.4980   -3.3390 H   0  0  0  0  0
    0.4090    1.2330   -3.2370 H   0  0  0  0  0
    0.0330   -0.9150   -1.8890 H   0  0  0  0  0
    2.2820   -0.5500   -0.7890 H   0  0  0  0  0
    0.8690   -3.1990   -0.4560 H   0  0  0  0  0
    2.1110   -2.7320   -1.6480 H   0  0  0  0  0
    4.5760   -4.6180    1.7610 H   0  0  0  0  0
    5.4180   -6.9060    1.3570 H   0  0  0  0  0
    4.6420   -8.1930   -0.6050 H   0  0  0  0  0
    2.1520   -4.8860   -1.7880 H   0  0  0  0  0
    3.2880   -9.4170   -1.7960 H   0  0  0  0  0
    4.5110   -8.7710   -2.9090 H   0  0  0  0  0
    2.9630   -9.3080   -3.4990 H   0  0  0  0  0
  1  2  2  0  0  0
  2  3  2  0  0  0
  2 12  1  0  0  0
  2  4  1  0  0  0
  4  5  2  0  0  0
  4 11  1  0  0  0
  5  6  1  0  0  0
  5 46  1  0  0  0
  6  7  2  0  0  0
  6 47  1  0  0  0
  7 10  1  0  0  0
  7  8  1  0  0  0
  8  9  1  0  0  0
  9 48  1  0  0  0
  9 49  1  0  0  0
  9 50  1  0  0  0
 10 11  2  0  0  0
 10 51  1  0  0  0
 11 52  1  0  0  0
 12 17  1  0  0  0
 12 13  1  0  0  0
 13 14  1  0  0  0
 13 53  1  0  0  0
 13 54  1  0  0  0
 14 15  1  0  0  0
 14 16  1  0  0  0
 14 55  1  0  0  0
 15 56  1  0  0  0
 15 57  1  0  0  0
 15 58  1  0  0  0
 16 59  1  0  0  0
 16 60  1  0  0  0
 16 61  1  0  0  0
 17 18  1  0  0  0
 17 62  1  0  0  0
 17 63  1  0  0  0
 18 20  1  0  0  0
 18 19  1  0  0  0
 18 64  1  0  0  0
 19 65  1  0  0  0
 20 28  1  0  0  0
 20 21  1  0  0  0
 20 66  1  0  0  0
 21 22  1  0  0  0
 21 67  1  0  0  0
 21 68  1  0  0  0
 22 27  2  0  0  0
 22 23  1  0  0  0
 23 24  2  0  0  0
 23 69  1  0  0  0
 24 25  1  0  0  0
 24 70  1  0  0  0
 25 26  2  0  0  0
 25 71  1  0  0  0
 26 27  1  0  0  0
 26 72  1  0  0  0
 27 73  1  0  0  0
 28 29  1  0  0  0
 28 74  1  0  0  0
 29 31  1  0  0  0
 29 30  2  0  0  0
 31 35  1  0  0  0
 31 32  1  0  0  0
 31 75  1  0  0  0
 32 33  1  0  0  0
 33 36  1  0  0  0
 33 34  2  0  0  0
 35 36  1  0  0  0
 35 76  1  0  0  0
 35 77  1  0  0  0
 36 37  1  0  0  0
 37 41  2  0  0  0
 37 38  1  0  0  0
 38 39  2  0  0  0
 38 78  1  0  0  0
 39 40  1  0  0  0
 39 79  1  0  0  0
 40 42  2  0  0  0
 40 80  1  0  0  0
 41 42  1  0  0  0
 41 81  1  0  0  0
 42 43  1  0  0  0
 43 45  1  0  0  0
 43 44  2  0  0  0
 45 82  1  0  0  0
 45 83  1  0  0  0
 45 84  1  0  0  0
M  END
$$$$
