MVA
  CCTOOLS-1004241121

 22 21  0  0  1  0  0  0  0  0999 V2000
   -0.2210   -1.5920   -0.3170 N   0  0  0  0  0
   -1.0350   -2.3840    0.6160 C   0  0  0  0  0
    0.0720   -0.2640    0.2370 C   0  0  0  0  0
    1.3620    0.2750   -0.3850 C   0  0  0  0  0
    1.6670    1.6590    0.1920 C   0  0  0  0  0
    2.5170   -0.6760   -0.0680 C   0  0  0  0  0
   -1.0660    0.6730   -0.0750 C   0  0  0  0  0
   -1.7540    0.4840   -1.0500 O   0  0  0  0  0
   -1.3160    1.7180    0.7300 O   0  0  0  0  0
    0.6290   -2.0790   -0.5580 H   0  0  0  0  0
   -0.4630   -2.5760    1.5240 H   0  0  0  0  0
   -1.9410   -1.8320    0.8660 H   0  0  0  0  0
   -1.3040   -3.3310    0.1490 H   0  0  0  0  0
    0.1940   -0.3400    1.3180 H   0  0  0  0  0
    1.2400    0.3510   -1.4650 H   0  0  0  0  0
    2.5860    2.0420   -0.2510 H   0  0  0  0  0
    0.8440    2.3360   -0.0340 H   0  0  0  0  0
    1.7890    1.5830    1.2730 H   0  0  0  0  0
    2.3000   -1.6620   -0.4790 H   0  0  0  0  0
    3.4360   -0.2930   -0.5110 H   0  0  0  0  0
    2.6390   -0.7520    1.0130 H   0  0  0  0  0
   -2.0560    2.2910    0.4880 H   0  0  0  0  0
  1  2  1  0  0  0
  1  3  1  0  0  0
  1 10  1  0  0  0
  2 11  1  0  0  0
  2 12  1  0  0  0
  2 13  1  0  0  0
  3  4  1  0  0  0
  3  7  1  0  0  0
  3 14  1  0  0  0
  4  5  1  0  0  0
  4  6  1  0  0  0
  4 15  1  0  0  0
  5 16  1  0  0  0
  5 17  1  0  0  0
  5 18  1  0  0  0
  6 19  1  0  0  0
  6 20  1  0  0  0
  6 21  1  0  0  0
  7  8  2  0  0  0
  7  9  1  0  0  0
  9 22  1  0  0  0
M  END
$$$$
