MVC
  CCTOOLS-0919241036

 65 64  0  0  1  0  0  0  0  0999 V2000
   10.5410    1.5470    0.0270 C   0  0  0  0  0
    2.6980   -1.0620    0.5370 C   0  0  0  0  0
    1.3320   -1.5780    0.0780 C   0  0  0  0  0
    9.1410    1.1640   -0.4550 C   0  0  0  0  0
    3.7790   -2.0770    0.1610 C   0  0  0  0  0
    0.2510   -0.5630    0.4540 C   0  0  0  0  0
   -8.3520    0.1050   -0.4030 C   0  0  0  0  0
    8.9020   -0.3250   -0.1960 C   0  0  0  0  0
    5.1440   -1.5610    0.6200 C   0  0  0  0  0
   -1.1140   -1.0790   -0.0060 C   0  0  0  0  0
    7.5010   -0.7080   -0.6780 C   0  0  0  0  0
    6.2100   -2.5610    0.2490 C   0  0  0  0  0
   -2.1960   -0.0640    0.3700 C   0  0  0  0  0
    7.2660   -2.1740   -0.4220 C   0  0  0  0  0
   -3.5610   -0.5800   -0.0890 C   0  0  0  0  0
   -4.6420    0.4350    0.2870 C   0  0  0  0  0
  -10.7970    0.5510   -0.6560 C   0  0  0  0  0
   -9.4880    1.0710   -0.0600 C   0  0  0  0  0
   -6.0720   -1.1380   -0.7300 O   0  0  0  0  0
   -5.9870   -0.0730   -0.1650 C   0  0  0  0  0
   -7.0910    0.6570    0.0600 O   0  0  0  0  0
   -9.6160    1.1700    1.3600 O   0  0  0  0  0
  -11.8340    1.5090   -0.4360 O   0  0  0  0  0
   10.7800    3.0360   -0.2320 C   0  0  0  0  0
   12.1810    3.4200    0.2500 C   0  0  0  0  0
    3.5680   -3.0300    0.6470 H   0  0  0  0  0
    3.7880   -2.2160   -0.9210 H   0  0  0  0  0
    2.9080   -0.1100    0.0500 H   0  0  0  0  0
    2.6890   -0.9240    1.6180 H   0  0  0  0  0
    5.3550   -0.6090    0.1330 H   0  0  0  0  0
    5.1360   -1.4230    1.7010 H   0  0  0  0  0
    1.3410   -1.7160   -1.0040 H   0  0  0  0  0
    1.1220   -2.5310    0.5640 H   0  0  0  0  0
   10.6260    1.3460    1.0950 H   0  0  0  0  0
   11.2840    0.9610   -0.5130 H   0  0  0  0  0
    8.3970    1.7510    0.0850 H   0  0  0  0  0
    9.0560    1.3650   -1.5230 H   0  0  0  0  0
    6.1020   -3.5960    0.5380 H   0  0  0  0  0
    0.2420   -0.4250    1.5350 H   0  0  0  0  0
    0.4620    0.3890   -0.0330 H   0  0  0  0  0
   -8.5300   -0.8530    0.0850 H   0  0  0  0  0
   -8.3110   -0.0390   -1.4820 H   0  0  0  0  0
   -9.2650    2.0550   -0.4740 H   0  0  0  0  0
    9.6450   -0.9110   -0.7360 H   0  0  0  0  0
    8.9860   -0.5260    0.8720 H   0  0  0  0  0
    7.9680   -2.9070   -0.7930 H   0  0  0  0  0
   -1.1060   -1.2170   -1.0870 H   0  0  0  0  0
   -1.3250   -2.0320    0.4810 H   0  0  0  0  0
    6.7580   -0.1210   -0.1380 H   0  0  0  0  0
    7.4170   -0.5070   -1.7460 H   0  0  0  0  0
   -2.2040    0.0740    1.4520 H   0  0  0  0  0
   -1.9850    0.8880   -0.1160 H   0  0  0  0  0
   -3.5530   -0.7180   -1.1700 H   0  0  0  0  0
   -3.7720   -1.5330    0.3980 H   0  0  0  0  0
   -4.6510    0.5730    1.3680 H   0  0  0  0  0
   -4.4320    1.3870   -0.1990 H   0  0  0  0  0
  -10.6710    0.3920   -1.7270 H   0  0  0  0  0
  -11.0650   -0.3910   -0.1780 H   0  0  0  0  0
  -12.6950    1.2450   -0.7890 H   0  0  0  0  0
   -9.8150    0.3300    1.7960 H   0  0  0  0  0
   10.6960    3.2370   -1.3000 H   0  0  0  0  0
   10.0370    3.6230    0.3080 H   0  0  0  0  0
   12.3510    4.4800    0.0650 H   0  0  0  0  0
   12.2650    3.2180    1.3180 H   0  0  0  0  0
   12.9240    2.8330   -0.2900 H   0  0  0  0  0
  1  4  1  0  0  0
  1 24  1  0  0  0
  1 34  1  0  0  0
  1 35  1  0  0  0
  2  3  1  0  0  0
  2 28  1  0  0  0
  2 29  1  0  0  0
  3  6  1  0  0  0
  3 32  1  0  0  0
  3 33  1  0  0  0
  4  8  1  0  0  0
  4 36  1  0  0  0
  4 37  1  0  0  0
  5  2  1  0  0  0
  5  9  1  0  0  0
  5 26  1  0  0  0
  5 27  1  0  0  0
  6 10  1  0  0  0
  6 39  1  0  0  0
  6 40  1  0  0  0
  7 18  1  0  0  0
  7 21  1  0  0  0
  7 41  1  0  0  0
  7 42  1  0  0  0
  8 11  1  0  0  0
  8 44  1  0  0  0
  8 45  1  0  0  0
  9 12  1  0  0  0
  9 30  1  0  0  0
  9 31  1  0  0  0
 10 13  1  0  0  0
 10 47  1  0  0  0
 10 48  1  0  0  0
 11 49  1  0  0  0
 11 50  1  0  0  0
 12 14  2  0  0  0
 12 38  1  0  0  0
 13 15  1  0  0  0
 13 51  1  0  0  0
 13 52  1  0  0  0
 14 11  1  0  0  0
 14 46  1  0  0  0
 15 16  1  0  0  0
 15 53  1  0  0  0
 15 54  1  0  0  0
 16 20  1  0  0  0
 16 55  1  0  0  0
 16 56  1  0  0  0
 17 18  1  0  0  0
 17 23  1  0  0  0
 17 57  1  0  0  0
 17 58  1  0  0  0
 18 22  1  0  0  0
 18 43  1  0  0  0
 19 20  2  0  0  0
 21 20  1  0  0  0
 22 60  1  0  0  0
 23 59  1  0  0  0
 24 25  1  0  0  0
 24 61  1  0  0  0
 24 62  1  0  0  0
 25 63  1  0  0  0
 25 64  1  0  0  0
 25 65  1  0  0  0
M  END
$$$$
