MYA
  CCTOOLS-1004241121

125127  0  0  1  0  0  0  0  0999 V2000
    9.0310    2.3160   -2.2790 S   0  0  0  0  0
    7.6830    2.6310   -1.1130 C   0  0  0  0  0
    6.5160    3.2930   -1.8490 C   0  0  0  0  0
    5.4250    3.5480   -0.9050 N   0  0  0  0  0
    4.2860    4.1280   -1.3320 C   0  0  0  0  0
    4.1640    4.4390   -2.4970 O   0  0  0  0  0
    3.1640    4.3910   -0.3600 C   0  0  0  0  0
    1.9970    5.0520   -1.0960 C   0  0  0  0  0
    0.9060    5.3070   -0.1520 N   0  0  0  0  0
   -0.2330    5.8880   -0.5790 C   0  0  0  0  0
   -0.3200    6.2840   -1.7220 O   0  0  0  0  0
   -1.3980    6.0450    0.3640 C   0  0  0  0  0
   -0.9720    5.7640    1.6980 O   0  0  0  0  0
   -2.5100    5.0720   -0.0320 C   0  0  0  0  0
   -3.6290    5.1260    1.0090 C   0  0  0  0  0
   -3.0680    5.4660   -1.4010 C   0  0  0  0  0
   -1.9440    3.6520   -0.1010 C   0  0  0  0  0
   -5.2440   -7.9470   -1.3820 N   0  0  0  0  0
   -9.4880    2.7880    1.2500 O   0  0  0  0  0
   -8.1260    1.9440    1.4000 P   0  0  0  0  0
   -7.9100   -3.5560   -0.6140 C   0  0  0  0  0
   -6.1040   -7.3520   -2.1880 C   0  0  0  0  0
   -7.9140    1.5980    2.8230 O   0  0  0  0  0
   -6.0060    4.0120    1.5110 P   0  0  0  0  0
   10.1720    1.5950   -1.2270 C   0  0  0  0  0
    9.9060    1.4470   -0.0520 O   0  0  0  0  0
   -9.3500   -3.9900   -0.2600 C   0  0  0  0  0
   -9.9510   -4.6740   -1.3600 O   0  0  0  0  0
   -6.7150   -6.2310   -1.8660 N   0  0  0  0  0
   -6.8870    2.8260    0.8720 O   0  0  0  0  0
   11.5080    1.1440   -1.7590 C   0  0  0  0  0
  -10.0840   -2.6600    0.0220 C   0  0  0  0  0
  -11.1630   -2.4800   -0.8980 O   0  0  0  0  0
  -12.6930   -2.3000   -0.4300 P   0  0  0  0  0
   -6.4850   -5.6460   -0.6950 C   0  0  0  0  0
   -5.6400    3.6610    2.9010 O   0  0  0  0  0
   12.3330    0.5390   -0.6210 C   0  0  0  0  0
   -9.0020   -1.5800   -0.1960 C   0  0  0  0  0
   -7.7480   -2.2660    0.0150 O   0  0  0  0  0
   -5.5780   -6.2410    0.1980 C   0  0  0  0  0
   -6.8610    5.3770    1.5090 O   0  0  0  0  0
   13.6890    0.0810   -1.1610 C   0  0  0  0  0
   -9.1670   -0.4480    0.8210 C   0  0  0  0  0
   -8.2320    0.5930    0.5300 O   0  0  0  0  0
   -4.9510   -7.4370   -0.1910 C   0  0  0  0  0
   -4.0490   -8.0680    0.6480 N   0  0  0  0  0
   -4.6680    4.2160    0.6390 O   0  0  0  0  0
   14.5130   -0.5240   -0.0230 C   0  0  0  0  0
   -5.5290   -5.4540    1.3000 N   0  0  0  0  0
  -12.8440   -0.9280    0.3970 O   0  0  0  0  0
   15.8690   -0.9820   -0.5630 C   0  0  0  0  0
   -6.3280   -4.4390    1.1430 C   0  0  0  0  0
  -13.6480   -2.2530   -1.7260 O   0  0  0  0  0
   16.6940   -1.5860    0.5750 C   0  0  0  0  0
   -6.9410   -4.5120   -0.0720 N   0  0  0  0  0
  -13.0830   -3.4400    0.4290 O   0  0  0  0  0
   18.0500   -2.0450    0.0340 C   0  0  0  0  0
   18.8750   -2.6490    1.1720 C   0  0  0  0  0
   20.2310   -3.1070    0.6320 C   0  0  0  0  0
   21.0550   -3.7120    1.7700 C   0  0  0  0  0
   22.4120   -4.1700    1.2300 C   0  0  0  0  0
   23.2360   -4.7750    2.3680 C   0  0  0  0  0
   24.5920   -5.2330    1.8270 C   0  0  0  0  0
    7.3510    1.6890   -0.6780 H   0  0  0  0  0
    8.0350    3.2930   -0.3210 H   0  0  0  0  0
    6.8480    4.2350   -2.2840 H   0  0  0  0  0
    6.1640    2.6310   -2.6400 H   0  0  0  0  0
    5.5220    3.2990    0.0280 H   0  0  0  0  0
    2.8320    3.4480    0.0750 H   0  0  0  0  0
    3.5160    5.0520    0.4310 H   0  0  0  0  0
    2.3290    5.9950   -1.5310 H   0  0  0  0  0
    1.6450    4.3910   -1.8880 H   0  0  0  0  0
    1.0040    5.0580    0.7800 H   0  0  0  0  0
   -1.7730    7.0670    0.3100 H   0  0  0  0  0
   -0.6250    4.8700    1.8200 H   0  0  0  0  0
   -3.2310    4.8450    1.9850 H   0  0  0  0  0
   -4.0320    6.1370    1.0580 H   0  0  0  0  0
   -2.2900    5.3530   -2.1570 H   0  0  0  0  0
   -3.9110    4.8210   -1.6490 H   0  0  0  0  0
   -3.4000    6.5030   -1.3740 H   0  0  0  0  0
   -1.5460    3.3720    0.8740 H   0  0  0  0  0
   -2.7370    2.9590   -0.3830 H   0  0  0  0  0
   -1.1470    3.6140   -0.8430 H   0  0  0  0  0
   -9.6910    3.0490    0.3410 H   0  0  0  0  0
   -7.7930   -3.4690   -1.6940 H   0  0  0  0  0
   -6.3130   -7.8010   -3.1480 H   0  0  0  0  0
   -9.3510   -4.6220    0.6280 H   0  0  0  0  0
   -9.4930   -5.4860   -1.6170 H   0  0  0  0  0
   11.3550    0.3940   -2.5350 H   0  0  0  0  0
   12.0390    1.9980   -2.1780 H   0  0  0  0  0
  -10.4480   -2.6350    1.0490 H   0  0  0  0  0
   12.4850    1.2890    0.1550 H   0  0  0  0  0
   11.8010   -0.3150   -0.2010 H   0  0  0  0  0
   -9.0540   -1.1890   -1.2120 H   0  0  0  0  0
   -7.1360    5.6670    0.6280 H   0  0  0  0  0
   13.5360   -0.6690   -1.9370 H   0  0  0  0  0
   14.2200    0.9350   -1.5810 H   0  0  0  0  0
  -10.1810   -0.0530    0.7620 H   0  0  0  0  0
   -8.9830   -0.8310    1.8240 H   0  0  0  0  0
   -3.6220   -8.8930    0.3680 H   0  0  0  0  0
   -3.8430   -7.6860    1.5150 H   0  0  0  0  0
   14.6660    0.2260    0.7530 H   0  0  0  0  0
   13.9820   -1.3780    0.3960 H   0  0  0  0  0
  -12.6040   -0.1370   -0.1050 H   0  0  0  0  0
   15.7170   -1.7320   -1.3400 H   0  0  0  0  0
   16.4010   -0.1270   -0.9830 H   0  0  0  0  0
   -6.4830   -3.6540    1.8690 H   0  0  0  0  0
  -14.5870   -2.1470   -1.5190 H   0  0  0  0  0
   16.8470   -0.8360    1.3510 H   0  0  0  0  0
   16.1630   -2.4410    0.9940 H   0  0  0  0  0
   17.8970   -2.7940   -0.7420 H   0  0  0  0  0
   18.5810   -1.1900   -0.3850 H   0  0  0  0  0
   19.0270   -1.8990    1.9490 H   0  0  0  0  0
   18.3430   -3.5030    1.5920 H   0  0  0  0  0
   20.0780   -3.8570   -0.1440 H   0  0  0  0  0
   20.7620   -2.2530    0.2130 H   0  0  0  0  0
   21.2080   -2.9620    2.5460 H   0  0  0  0  0
   20.5240   -4.5660    2.1900 H   0  0  0  0  0
   22.2590   -4.9200    0.4540 H   0  0  0  0  0
   22.9430   -3.3160    0.8100 H   0  0  0  0  0
   23.3890   -4.0250    3.1440 H   0  0  0  0  0
   22.7050   -5.6290    2.7870 H   0  0  0  0  0
   24.4400   -5.9830    1.0510 H   0  0  0  0  0
   25.1240   -4.3790    1.4080 H   0  0  0  0  0
   25.1800   -5.6640    2.6380 H   0  0  0  0  0
  1  2  1  0  0  0
  2  3  1  0  0  0
  2 64  1  0  0  0
  2 65  1  0  0  0
  3  4  1  0  0  0
  3 66  1  0  0  0
  3 67  1  0  0  0
  4  5  1  0  0  0
  4 68  1  0  0  0
  5  7  1  0  0  0
  6  5  2  0  0  0
  7  8  1  0  0  0
  7 69  1  0  0  0
  7 70  1  0  0  0
  8 71  1  0  0  0
  8 72  1  0  0  0
  9  8  1  0  0  0
  9 73  1  0  0  0
 10  9  1  0  0  0
 10 11  2  0  0  0
 12 10  1  0  0  0
 12 74  1  0  0  0
 13 12  1  0  0  0
 13 75  1  0  0  0
 14 12  1  0  0  0
 14 17  1  0  0  0
 15 14  1  0  0  0
 15 47  1  0  0  0
 15 76  1  0  0  0
 15 77  1  0  0  0
 16 14  1  0  0  0
 16 78  1  0  0  0
 16 79  1  0  0  0
 16 80  1  0  0  0
 17 81  1  0  0  0
 17 82  1  0  0  0
 17 83  1  0  0  0
 18 45  1  0  0  0
 19 84  1  0  0  0
 20 19  1  0  0  0
 20 30  1  0  0  0
 21 39  1  0  0  0
 21 55  1  0  0  0
 21 85  1  0  0  0
 22 18  2  0  0  0
 22 86  1  0  0  0
 23 20  2  0  0  0
 24 36  2  0  0  0
 24 41  1  0  0  0
 25  1  1  0  0  0
 25 26  2  0  0  0
 27 21  1  0  0  0
 27 87  1  0  0  0
 28 27  1  0  0  0
 28 88  1  0  0  0
 29 22  1  0  0  0
 29 35  2  0  0  0
 30 24  1  0  0  0
 31 25  1  0  0  0
 31 89  1  0  0  0
 31 90  1  0  0  0
 32 27  1  0  0  0
 32 38  1  0  0  0
 32 91  1  0  0  0
 33 32  1  0  0  0
 34 33  1  0  0  0
 34 50  1  0  0  0
 35 55  1  0  0  0
 35 40  1  0  0  0
 37 31  1  0  0  0
 37 92  1  0  0  0
 37 93  1  0  0  0
 38 39  1  0  0  0
 38 43  1  0  0  0
 38 94  1  0  0  0
 40 45  2  0  0  0
 40 49  1  0  0  0
 41 95  1  0  0  0
 42 37  1  0  0  0
 42 96  1  0  0  0
 42 97  1  0  0  0
 43 44  1  0  0  0
 43 98  1  0  0  0
 43 99  1  0  0  0
 44 20  1  0  0  0
 45 46  1  0  0  0
 46100  1  0  0  0
 46101  1  0  0  0
 47 24  1  0  0  0
 48 42  1  0  0  0
 48102  1  0  0  0
 48103  1  0  0  0
 50104  1  0  0  0
 51 48  1  0  0  0
 51105  1  0  0  0
 51106  1  0  0  0
 52 49  2  0  0  0
 52107  1  0  0  0
 53 34  1  0  0  0
 53108  1  0  0  0
 54 51  1  0  0  0
 54109  1  0  0  0
 54110  1  0  0  0
 55 52  1  0  0  0
 56 34  2  0  0  0
 57 54  1  0  0  0
 57111  1  0  0  0
 57112  1  0  0  0
 58 57  1  0  0  0
 58 59  1  0  0  0
 58113  1  0  0  0
 58114  1  0  0  0
 59115  1  0  0  0
 59116  1  0  0  0
 60 59  1  0  0  0
 60117  1  0  0  0
 60118  1  0  0  0
 61 60  1  0  0  0
 61119  1  0  0  0
 61120  1  0  0  0
 62 61  1  0  0  0
 62121  1  0  0  0
 62122  1  0  0  0
 63 62  1  0  0  0
 63123  1  0  0  0
 63124  1  0  0  0
 63125  1  0  0  0
M  END
$$$$
