MYP
  CCTOOLS-0919241037

 83 86  0  0  1  0  0  0  0  0999 V2000
    2.3380   -4.0040   -2.5530 N   0  0  0  0  0
    1.5150   -1.3070   -1.9080 C   0  0  0  0  0
    0.9150   -3.6590   -2.6150 C   0  0  0  0  0
    0.7410   -2.1700   -2.9120 C   0  0  0  0  0
    3.0910   -3.2420   -1.5450 C   0  0  0  0  0
    2.9820   -1.7450   -1.8240 C   0  0  0  0  0
    2.8470   -4.9930   -3.4100 C   0  0  0  0  0
    2.1420   -5.5950   -4.2270 O   0  0  0  0  0
    1.4180    0.1090   -2.2530 N   0  0  0  0  0
    2.1600    0.9340   -1.2900 C   0  0  0  0  0
    2.0340    2.4080   -1.6630 C   0  0  0  0  0
    0.0130    0.5380   -2.3060 C   0  0  0  0  0
   -0.0620    2.0220   -2.6570 C   0  0  0  0  0
    0.6600    2.7960   -1.6990 O   0  0  0  0  0
    4.2060   -5.2540   -3.2890 N   0  0  0  0  0
    4.8740   -6.2420   -4.1080 C   0  0  0  0  0
    5.4620   -5.6330   -5.3860 C   0  0  0  0  0
    5.7090   -6.6610   -6.4620 C   0  0  0  0  0
    6.9360   -7.3040   -6.5190 C   0  0  0  0  0
    4.7050   -6.9450   -7.3740 C   0  0  0  0  0
    7.1650   -8.2550   -7.5140 C   0  0  0  0  0
    4.9340   -7.8960   -8.3690 C   0  0  0  0  0
    6.1640   -8.5510   -8.4390 C   0  0  0  0  0
    5.9790   -6.8590   -3.2580 C   0  0  0  0  0
    6.6220   -6.2190   -2.4290 O   0  0  0  0  0
    6.1240   -8.2180   -3.5010 N   0  0  0  0  0
    7.0670   -9.0540   -2.7940 C   0  0  0  0  0
    6.4300   -9.6080   -1.5120 C   0  0  0  0  0
    6.7300  -10.9870    0.5780 C   0  0  0  0  0
    7.3890  -10.4810   -0.6960 C   0  0  0  0  0
    8.7660  -10.2580   -4.1810 C   0  0  0  0  0
    7.5080  -10.1360   -3.7420 C   0  0  0  0  0
   10.8360  -11.3280   -5.5750 C   0  0  0  0  0
   13.5380  -10.9890   -6.0510 C   0  0  0  0  0
   13.1120  -11.7970   -4.9970 C   0  0  0  0  0
   11.7480  -11.9680   -4.7570 C   0  0  0  0  0
   11.2380  -10.5230   -6.6240 C   0  0  0  0  0
   12.6010  -10.3520   -6.8650 C   0  0  0  0  0
    9.1050  -11.5450   -5.2690 S   0  0  0  0  0
    8.4090  -11.3120   -6.5240 O   0  0  0  0  0
    8.9580  -12.8220   -4.5910 O   0  0  0  0  0
    1.0600   -1.4420   -0.9180 H   0  0  0  0  0
    0.4690   -3.9150   -1.6470 H   0  0  0  0  0
    0.4000   -4.2480   -3.3800 H   0  0  0  0  0
    1.1000   -1.9660   -3.9300 H   0  0  0  0  0
   -0.3260   -1.9160   -2.8900 H   0  0  0  0  0
    4.1390   -3.5350   -1.4830 H   0  0  0  0  0
    2.6470   -3.4770   -0.5700 H   0  0  0  0  0
    3.5000   -1.1880   -1.0350 H   0  0  0  0  0
    3.4940   -1.5180   -2.7690 H   0  0  0  0  0
    3.2200    0.6530   -1.2910 H   0  0  0  0  0
    1.7680    0.7760   -0.2770 H   0  0  0  0  0
    2.5350    3.0270   -0.9120 H   0  0  0  0  0
    2.4990    2.6200   -2.6340 H   0  0  0  0  0
   -0.4700    0.3660   -1.3360 H   0  0  0  0  0
   -0.5300   -0.0380   -3.0640 H   0  0  0  0  0
    0.3320    2.2210   -3.6610 H   0  0  0  0  0
   -1.1040    2.3570   -2.6380 H   0  0  0  0  0
    4.7970   -4.7040   -2.6820 H   0  0  0  0  0
    4.1280   -7.0110   -4.3400 H   0  0  0  0  0
    6.3970   -5.1030   -5.1590 H   0  0  0  0  0
    4.7880   -4.8670   -5.7910 H   0  0  0  0  0
    7.7220   -7.0800   -5.8020 H   0  0  0  0  0
    3.7440   -6.4400   -7.3280 H   0  0  0  0  0
    8.1220   -8.7650   -7.5680 H   0  0  0  0  0
    4.1540   -8.1270   -9.0890 H   0  0  0  0  0
    6.3420   -9.2910   -9.2130 H   0  0  0  0  0
    5.5380   -8.6460   -4.2120 H   0  0  0  0  0
    7.9080   -8.4020   -2.5260 H   0  0  0  0  0
    5.5480  -10.2040   -1.7820 H   0  0  0  0  0
    6.0600   -8.7840   -0.8870 H   0  0  0  0  0
    5.8480  -11.5940    0.3500 H   0  0  0  0  0
    6.4190  -10.1540    1.2160 H   0  0  0  0  0
    7.4310  -11.6070    1.1460 H   0  0  0  0  0
    8.2860   -9.9130   -0.4270 H   0  0  0  0  0
    7.7130  -11.3380   -1.2970 H   0  0  0  0  0
    9.5600   -9.5860   -3.8800 H   0  0  0  0  0
    6.7450  -10.8360   -4.0770 H   0  0  0  0  0
   14.6000  -10.8570   -6.2380 H   0  0  0  0  0
   13.8410  -12.2930   -4.3630 H   0  0  0  0  0
   11.4270  -12.6010   -3.9340 H   0  0  0  0  0
   10.5160  -10.0210   -7.2630 H   0  0  0  0  0
   12.9330   -9.7240   -7.6860 H   0  0  0  0  0
  1  3  1  0  0  0
  1  5  1  0  0  0
  1  7  1  0  0  0
  2  4  1  0  0  0
  2  6  1  0  0  0
  2  9  1  0  0  0
  2 42  1  0  0  0
  3  4  1  0  0  0
  3 43  1  0  0  0
  3 44  1  0  0  0
  4 45  1  0  0  0
  4 46  1  0  0  0
  5  6  1  0  0  0
  5 47  1  0  0  0
  5 48  1  0  0  0
  6 49  1  0  0  0
  6 50  1  0  0  0
  7  8  2  0  0  0
  7 15  1  0  0  0
  9 10  1  0  0  0
  9 12  1  0  0  0
 10 11  1  0  0  0
 10 51  1  0  0  0
 10 52  1  0  0  0
 11 14  1  0  0  0
 11 53  1  0  0  0
 11 54  1  0  0  0
 12 13  1  0  0  0
 12 55  1  0  0  0
 12 56  1  0  0  0
 13 14  1  0  0  0
 13 57  1  0  0  0
 13 58  1  0  0  0
 15 16  1  0  0  0
 15 59  1  0  0  0
 16 17  1  0  0  0
 16 24  1  0  0  0
 16 60  1  0  0  0
 17 18  1  0  0  0
 17 61  1  0  0  0
 17 62  1  0  0  0
 18 19  2  0  0  0
 18 20  1  0  0  0
 19 21  1  0  0  0
 19 63  1  0  0  0
 20 22  2  0  0  0
 20 64  1  0  0  0
 21 23  2  0  0  0
 21 65  1  0  0  0
 22 23  1  0  0  0
 22 66  1  0  0  0
 23 67  1  0  0  0
 24 25  2  0  0  0
 24 26  1  0  0  0
 26 27  1  0  0  0
 26 68  1  0  0  0
 27 28  1  0  0  0
 27 32  1  0  0  0
 27 69  1  0  0  0
 28 30  1  0  0  0
 28 70  1  0  0  0
 28 71  1  0  0  0
 29 30  1  0  0  0
 29 72  1  0  0  0
 29 73  1  0  0  0
 29 74  1  0  0  0
 30 75  1  0  0  0
 30 76  1  0  0  0
 31 32  2  0  0  0
 31 39  1  0  0  0
 31 77  1  0  0  0
 32 78  1  0  0  0
 33 36  2  0  0  0
 33 37  1  0  0  0
 33 39  1  0  0  0
 34 35  2  0  0  0
 34 38  1  0  0  0
 34 79  1  0  0  0
 35 36  1  0  0  0
 35 80  1  0  0  0
 36 81  1  0  0  0
 37 38  2  0  0  0
 37 82  1  0  0  0
 38 83  1  0  0  0
 39 40  2  0  0  0
 39 41  2  0  0  0
M  END
$$$$
