MYS
  CCTOOLS-0919241037

 47 46  0  0  0  0  0  0  0  0999 V2000
   -0.4080   -0.0040    8.7440 C   0  0  0  0  0
    0.4750    0.0050    7.4950 C   0  0  0  0  0
   -0.4080   -0.0040    6.2460 C   0  0  0  0  0
    0.4750    0.0050    4.9970 C   0  0  0  0  0
   -0.4080   -0.0040    3.7470 C   0  0  0  0  0
    0.4750    0.0050    2.4980 C   0  0  0  0  0
   -0.4080   -0.0040    1.2490 C   0  0  0  0  0
    0.4750    0.0050    0.0000 C   0  0  0  0  0
   -0.4080   -0.0040   -1.2490 C   0  0  0  0  0
    0.4750    0.0050   -2.4980 C   0  0  0  0  0
   -0.4080   -0.0040   -3.7470 C   0  0  0  0  0
    0.4750    0.0050   -4.9970 C   0  0  0  0  0
   -0.4080   -0.0040   -6.2460 C   0  0  0  0  0
    0.4750    0.0050   -7.4950 C   0  0  0  0  0
   -0.4080   -0.0040   -8.7440 C   0  0  0  0  0
   -1.0270   -0.9010    8.7440 H   0  0  0  0  0
    0.2210    0.0020    9.6340 H   0  0  0  0  0
   -1.0470    0.8780    8.7440 H   0  0  0  0  0
    1.0940    0.9020    7.4950 H   0  0  0  0  0
    1.1140   -0.8770    7.4950 H   0  0  0  0  0
   -1.0270   -0.9010    6.2460 H   0  0  0  0  0
   -1.0470    0.8780    6.2460 H   0  0  0  0  0
    1.0940    0.9020    4.9970 H   0  0  0  0  0
    1.1140   -0.8770    4.9970 H   0  0  0  0  0
   -1.0270   -0.9010    3.7470 H   0  0  0  0  0
   -1.0470    0.8780    3.7470 H   0  0  0  0  0
    1.0940    0.9020    2.4980 H   0  0  0  0  0
    1.1140   -0.8770    2.4980 H   0  0  0  0  0
   -1.0270   -0.9010    1.2490 H   0  0  0  0  0
   -1.0470    0.8780    1.2490 H   0  0  0  0  0
    1.0940    0.9020    0.0000 H   0  0  0  0  0
    1.1140   -0.8770    0.0000 H   0  0  0  0  0
   -1.0270   -0.9010   -1.2490 H   0  0  0  0  0
   -1.0470    0.8780   -1.2490 H   0  0  0  0  0
    1.0940    0.9020   -2.4980 H   0  0  0  0  0
    1.1140   -0.8770   -2.4980 H   0  0  0  0  0
   -1.0270   -0.9010   -3.7470 H   0  0  0  0  0
   -1.0470    0.8780   -3.7470 H   0  0  0  0  0
    1.0940    0.9020   -4.9970 H   0  0  0  0  0
    1.1140   -0.8770   -4.9970 H   0  0  0  0  0
   -1.0270   -0.9010   -6.2460 H   0  0  0  0  0
   -1.0470    0.8780   -6.2460 H   0  0  0  0  0
    1.0940    0.9020   -7.4950 H   0  0  0  0  0
    1.1140   -0.8770   -7.4950 H   0  0  0  0  0
    0.2210    0.0020   -9.6340 H   0  0  0  0  0
   -1.0270   -0.9010   -8.7440 H   0  0  0  0  0
   -1.0470    0.8780   -8.7440 H   0  0  0  0  0
  1  2  1  0  0  0
  1 16  1  0  0  0
  1 17  1  0  0  0
  1 18  1  0  0  0
  2  3  1  0  0  0
  2 19  1  0  0  0
  2 20  1  0  0  0
  3  4  1  0  0  0
  3 21  1  0  0  0
  3 22  1  0  0  0
  4  5  1  0  0  0
  4 23  1  0  0  0
  4 24  1  0  0  0
  5  6  1  0  0  0
  5 25  1  0  0  0
  5 26  1  0  0  0
  6  7  1  0  0  0
  6 27  1  0  0  0
  6 28  1  0  0  0
  7  8  1  0  0  0
  7 29  1  0  0  0
  7 30  1  0  0  0
  8  9  1  0  0  0
  8 31  1  0  0  0
  8 32  1  0  0  0
  9 10  1  0  0  0
  9 33  1  0  0  0
  9 34  1  0  0  0
 10 11  1  0  0  0
 10 35  1  0  0  0
 10 36  1  0  0  0
 11 12  1  0  0  0
 11 37  1  0  0  0
 11 38  1  0  0  0
 12 13  1  0  0  0
 12 39  1  0  0  0
 12 40  1  0  0  0
 13 14  1  0  0  0
 13 41  1  0  0  0
 13 42  1  0  0  0
 14 15  1  0  0  0
 14 43  1  0  0  0
 14 44  1  0  0  0
 15 45  1  0  0  0
 15 46  1  0  0  0
 15 47  1  0  0  0
M  END
$$$$
