N09
  CCTOOLS-0919241037

 41 44  0  0  0  0  0  0  0  0999 V2000
    5.5710    1.1430   -2.1730 O   0  0  0  0  0
    5.0190    0.7320   -1.1700 C   0  0  0  0  0
    3.8700    1.4260   -0.5750 C   0  0  0  0  0
    3.3930    2.7300   -0.6360 C   0  0  0  0  0
    2.3130    2.8060    0.1020 N   0  0  0  0  0
    5.4260   -0.3980   -0.5380 O   0  0  0  0  0
    4.5100   -1.2130    0.0370 C   0  0  0  0  0
    4.7890   -2.5650    0.1930 C   0  0  0  0  0
    3.8730   -3.3980    0.8010 C   0  0  0  0  0
    2.6650   -2.9050    1.2690 C   0  0  0  0  0
    2.3620   -1.5670    1.1230 C   0  0  0  0  0
    3.2730   -0.7200    0.5010 C   0  0  0  0  0
    2.9900    0.6970    0.2630 C   0  0  0  0  0
    2.0460    1.5480    0.6720 N   0  0  0  0  0
    0.9280    1.2280    1.5620 C   0  0  0  0  0
   -0.2530    0.7760    0.7420 C   0  0  0  0  0
   -0.1680    0.7270   -0.4670 O   0  0  0  0  0
   -1.4030    0.4270    1.3510 N   0  0  0  0  0
   -2.5300    0.1010    0.5870 C   0  0  0  0  0
   -2.3800   -0.5660   -0.6220 C   0  0  0  0  0
   -3.4920   -0.8930   -1.3740 C   0  0  0  0  0
   -3.7980    0.4400    1.0390 C   0  0  0  0  0
   -4.9110    0.1150    0.2800 C   0  0  0  0  0
   -4.7560   -0.5570   -0.9260 C   0  0  0  0  0
   -6.1500   -0.9690   -1.8740 CL  0  0  0  0  0
   -6.1540    0.4450    0.7200 O   0  0  0  0  0
   -6.2390    1.1250    1.9730 C   0  0  0  0  0
    3.8370    3.5410   -1.1950 H   0  0  0  0  0
    5.7270   -2.9660   -0.1620 H   0  0  0  0  0
    4.1000   -4.4480    0.9130 H   0  0  0  0  0
    1.9610   -3.5680    1.7490 H   0  0  0  0  0
    1.4230   -1.1800    1.4890 H   0  0  0  0  0
    1.2230    0.4300    2.2440 H   0  0  0  0  0
    0.6540    2.1140    2.1350 H   0  0  0  0  0
   -1.4510    0.4020    2.3200 H   0  0  0  0  0
   -1.3930   -0.8290   -0.9740 H   0  0  0  0  0
   -3.3730   -1.4120   -2.3140 H   0  0  0  0  0
   -3.9170    0.9540    1.9810 H   0  0  0  0  0
   -7.2840    1.3290    2.2060 H   0  0  0  0  0
   -5.8070    0.5010    2.7560 H   0  0  0  0  0
   -5.6900    2.0650    1.9150 H   0  0  0  0  0
  2  6  1  0  0  0
  2  1  2  0  0  0
  3  2  1  0  0  0
  4  3  1  0  0  0
  4 28  1  0  0  0
  5 14  1  0  0  0
  5  4  2  0  0  0
  7  8  1  0  0  0
  7  6  1  0  0  0
  8 29  1  0  0  0
  9  8  2  0  0  0
  9 30  1  0  0  0
 10  9  1  0  0  0
 10 31  1  0  0  0
 11 10  2  0  0  0
 11 12  1  0  0  0
 11 32  1  0  0  0
 12  7  2  0  0  0
 13 12  1  0  0  0
 13  3  2  0  0  0
 14 13  1  0  0  0
 15 14  1  0  0  0
 15 33  1  0  0  0
 15 34  1  0  0  0
 16 15  1  0  0  0
 16 17  2  0  0  0
 18 16  1  0  0  0
 18 35  1  0  0  0
 19 22  1  0  0  0
 19 18  1  0  0  0
 20 19  2  0  0  0
 20 36  1  0  0  0
 21 24  2  0  0  0
 21 20  1  0  0  0
 21 37  1  0  0  0
 22 38  1  0  0  0
 23 26  1  0  0  0
 23 22  2  0  0  0
 24 23  1  0  0  0
 25 24  1  0  0  0
 26 27  1  0  0  0
 27 39  1  0  0  0
 27 40  1  0  0  0
 27 41  1  0  0  0
M  END
$$$$
