N1L
  CCTOOLS-1004241122

 24 24  0  0  1  0  0  0  0  0999 V2000
   -1.2670    1.2590    0.3890 C   0  0  0  0  0
   -1.8700    0.0060   -0.2520 C   0  0  0  0  0
   -1.0550   -1.2190    0.1760 C   0  0  0  0  0
    0.4090   -1.0100   -0.2220 C   0  0  0  0  0
    0.9240    0.2830    0.4180 C   0  0  0  0  0
    2.3460    0.5270   -0.0170 C   0  0  0  0  0
   -3.2610   -0.1510    0.1910 N   0  0  0  0  0
   -1.5660   -2.3840   -0.4750 O   0  0  0  0  0
    1.1910   -2.1140    0.2370 O   0  0  0  0  0
    0.1040    1.3770    0.0030 O   0  0  0  0  0
    3.3160   -0.3250    0.3510 O   0  0  0  0  0
    2.6130    1.4890   -0.6970 O   0  0  0  0  0
   -1.9870    2.4120   -0.0510 O   0  0  0  0  0
   -1.3330    1.1800    1.4740 H   0  0  0  0  0
   -1.8400    0.1010   -1.3370 H   0  0  0  0  0
   -1.6590    3.2440    0.3170 H   0  0  0  0  0
   -1.1250   -1.3440    1.2570 H   0  0  0  0  0
   -3.8180    0.6470   -0.0750 H   0  0  0  0  0
   -3.6610   -1.0060   -0.1670 H   0  0  0  0  0
    0.4840   -0.9340   -1.3060 H   0  0  0  0  0
   -1.0960   -3.1990   -0.2490 H   0  0  0  0  0
    0.8860    0.1910    1.5030 H   0  0  0  0  0
    2.1310   -2.0470    0.0190 H   0  0  0  0  0
    4.2120   -0.1270    0.0480 H   0  0  0  0  0
  1  2  1  0  0  0
  1 10  1  0  0  0
  1 13  1  0  0  0
  1 14  1  0  0  0
  2  3  1  0  0  0
  2  7  1  0  0  0
  2 15  1  0  0  0
  3  4  1  0  0  0
  3  8  1  0  0  0
  3 17  1  0  0  0
  4  5  1  0  0  0
  4  9  1  0  0  0
  4 20  1  0  0  0
  5  6  1  0  0  0
  5 10  1  0  0  0
  5 22  1  0  0  0
  6 11  1  0  0  0
  6 12  2  0  0  0
  7 18  1  0  0  0
  7 19  1  0  0  0
  8 21  1  0  0  0
  9 23  1  0  0  0
 11 24  1  0  0  0
 13 16  1  0  0  0
M  END
$$$$
