N2C
  CCTOOLS-1004241122

 20 19  0  0  1  0  0  0  0  0999 V2000
    3.0670   -1.3860   -0.5170 N   0  0  0  0  0
    1.6650   -1.1640   -0.7660 C   0  0  0  0  0
    1.0760   -0.1070    0.1720 C   0  0  0  0  0
   -0.7350    0.0630    0.0430 S   0  0  0  0  0
   -0.9630    1.3250    1.3150 C   0  0  0  0  0
    3.5810   -2.5050   -1.3050 C   0  0  0  0  0
    1.3900   -0.8570   -2.2290 C   0  0  0  0  0
    1.7880    0.1520   -2.7990 O   0  0  0  0  0
    0.6440   -1.8050   -2.8440 O   0  0  0  0  0
    3.2190   -1.5900    0.4760 H   0  0  0  0  0
    1.1800   -2.1270   -0.5620 H   0  0  0  0  0
    1.5120    0.8730   -0.0520 H   0  0  0  0  0
    1.3140   -0.3460    1.2140 H   0  0  0  0  0
   -1.8980    1.1470    1.8520 H   0  0  0  0  0
   -1.0000    2.3150    0.8530 H   0  0  0  0  0
   -0.1320    1.2920    2.0240 H   0  0  0  0  0
    3.7420   -2.1930   -2.3400 H   0  0  0  0  0
    2.8680   -3.3340   -1.2940 H   0  0  0  0  0
    4.5310   -2.8540   -0.8910 H   0  0  0  0  0
    0.4690   -1.5810   -3.7840 H   0  0  0  0  0
  1  2  1  0  0  0
  1  6  1  0  0  0
  1 10  1  0  0  0
  2  3  1  0  0  0
  2  7  1  0  0  0
  2 11  1  0  0  0
  3  4  1  0  0  0
  3 12  1  0  0  0
  3 13  1  0  0  0
  4  5  1  0  0  0
  5 14  1  0  0  0
  5 15  1  0  0  0
  5 16  1  0  0  0
  6 17  1  0  0  0
  6 18  1  0  0  0
  6 19  1  0  0  0
  7  8  2  0  0  0
  7  9  1  0  0  0
  9 20  1  0  0  0
M  END
$$$$
