N4B
  CCTOOLS-0919241037

 24 24  0  0  0  0  0  0  0  0999 V2000
    0.0010    0.4500   -0.5810 C   0  0  0  0  0
   -1.1960    0.2120   -1.2290 C   0  0  0  0  0
   -1.1970   -0.2670   -2.5250 C   0  0  0  0  0
   -0.0010   -0.5090   -3.1740 C   0  0  0  0  0
    1.1960   -0.2710   -2.5260 C   0  0  0  0  0
    1.1970    0.2120   -1.2310 C   0  0  0  0  0
    0.0020    0.9730    0.8310 C   0  0  0  0  0
   -0.0000   -0.2020    1.8100 C   0  0  0  0  0
    0.0000    0.3280    3.2450 C   0  0  0  0  0
   -0.0010   -0.8460    4.2240 C   0  0  0  0  0
   -2.1310    0.4020   -0.7230 H   0  0  0  0  0
   -2.1330   -0.4530   -3.0320 H   0  0  0  0  0
   -0.0020   -0.8850   -4.1860 H   0  0  0  0  0
    2.1310   -0.4610   -3.0320 H   0  0  0  0  0
    2.1330    0.3980   -0.7250 H   0  0  0  0  0
   -0.8860    1.5830    0.9940 H   0  0  0  0  0
    0.8930    1.5790    0.9940 H   0  0  0  0  0
    0.8880   -0.8120    1.6480 H   0  0  0  0  0
   -0.8910   -0.8080    1.6480 H   0  0  0  0  0
   -0.8870    0.9390    3.4080 H   0  0  0  0  0
    0.8920    0.9340    3.4080 H   0  0  0  0  0
   -0.0000   -0.4680    5.2470 H   0  0  0  0  0
   -0.8930   -1.4520    4.0620 H   0  0  0  0  0
    0.8860   -1.4560    4.0620 H   0  0  0  0  0
  1  2  2  0  0  0
  1  6  1  0  0  0
  1  7  1  0  0  0
  2  3  1  0  0  0
  2 11  1  0  0  0
  3  4  2  0  0  0
  3 12  1  0  0  0
  4  5  1  0  0  0
  4 13  1  0  0  0
  5  6  2  0  0  0
  5 14  1  0  0  0
  6 15  1  0  0  0
  7  8  1  0  0  0
  7 16  1  0  0  0
  7 17  1  0  0  0
  8  9  1  0  0  0
  8 18  1  0  0  0
  8 19  1  0  0  0
  9 10  1  0  0  0
  9 20  1  0  0  0
  9 21  1  0  0  0
 10 22  1  0  0  0
 10 23  1  0  0  0
 10 24  1  0  0  0
M  END
$$$$
