N6M
  CCTOOLS-0919241038

 18 19  0  0  0  0  0  0  0  0999 V2000
    0.9970   -0.1290    0.0030 C   0  0  0  0  0
   -0.3670   -0.4680    0.0010 C   0  0  0  0  0
   -1.3090    0.5750    0.0010 C   0  0  0  0  0
    0.4080    2.1020   -0.0020 C   0  0  0  0  0
   -2.3360   -1.3770   -0.0020 C   0  0  0  0  0
    3.3870   -0.7410   -0.0020 C   0  0  0  0  0
    1.9700   -1.1130    0.0020 N   0  0  0  0  0
    1.3300    1.1570   -0.0010 N   0  0  0  0  0
   -0.8810    1.8330    0.0020 N   0  0  0  0  0
   -2.5410   -0.0290   -0.0010 N   0  0  0  0  0
   -1.0600   -1.6320   -0.0010 N   0  0  0  0  0
   -3.4010    0.4210   -0.0010 H   0  0  0  0  0
   -3.1170   -2.1220   -0.0030 H   0  0  0  0  0
    1.7140   -2.0490    0.0050 H   0  0  0  0  0
    3.6060   -0.1540   -0.8940 H   0  0  0  0  0
    3.6110   -0.1500    0.8860 H   0  0  0  0  0
    4.0000   -1.6430   -0.0020 H   0  0  0  0  0
    0.7230    3.1360   -0.0000 H   0  0  0  0  0
  1  7  1  0  0  0
  1  8  2  0  0  0
  2  1  1  0  0  0
  2  3  2  0  0  0
  4  9  2  0  0  0
  4 18  1  0  0  0
  5 11  2  0  0  0
  5 13  1  0  0  0
  6 15  1  0  0  0
  6 16  1  0  0  0
  6 17  1  0  0  0
  7 14  1  0  0  0
  7  6  1  0  0  0
  8  4  1  0  0  0
  9  3  1  0  0  0
 10  5  1  0  0  0
 10  3  1  0  0  0
 10 12  1  0  0  0
 11  2  1  0  0  0
M  END
$$$$
