NAB
  CCTOOLS-0919241038

 34 36  0  0  0  0  0  0  0  0999 V2000
   -0.5740    0.0050    2.3640 C   0  0  0  0  0
    0.1250   -0.0030    3.5880 C   0  0  0  0  0
   -0.5860   -0.0060    4.7880 C   0  0  0  0  0
   -1.9650   -0.0060    4.7710 C   0  0  0  0  0
   -2.6540   -0.0040    3.5680 C   0  0  0  0  0
   -1.9710   -0.0010    2.3710 C   0  0  0  0  0
    0.1390    0.0090   -1.1090 C   0  0  0  0  0
    1.5330    0.0160   -1.1240 C   0  0  0  0  0
    2.2250    0.0190   -2.3210 C   0  0  0  0  0
    1.5700    0.0150   -3.5360 C   0  0  0  0  0
    0.1600    0.0070   -3.5890 C   0  0  0  0  0
   -0.5220    0.0040   -4.8150 C   0  0  0  0  0
   -1.8850   -0.0020   -4.8270 C   0  0  0  0  0
   -2.6110   -0.0050   -3.6400 C   0  0  0  0  0
   -1.9780   -0.0020   -2.4320 C   0  0  0  0  0
   -0.5800   -0.0000   -2.3840 C   0  0  0  0  0
    1.6000   -0.0020    3.6000 C   0  0  0  0  0
    0.1060    0.0090    1.1830 N   0  0  0  0  0
   -0.5390    0.0050    0.0660 N   0  0  0  0  0
    2.2160    0.0000    2.5530 O   0  0  0  0  0
    2.2640   -0.0060    4.7720 O   0  0  0  0  0
    2.2870    0.0170   -4.6870 O   0  0  0  0  0
   -0.0570   -0.0090    5.7290 H   0  0  0  0  0
   -2.5130   -0.0090    5.7020 H   0  0  0  0  0
   -3.7340   -0.0040    3.5690 H   0  0  0  0  0
   -2.5150    0.0000    1.4380 H   0  0  0  0  0
    2.0770    0.0190   -0.1910 H   0  0  0  0  0
    3.3050    0.0240   -2.3050 H   0  0  0  0  0
    0.0280    0.0070   -5.7440 H   0  0  0  0  0
   -2.4080   -0.0040   -5.7720 H   0  0  0  0  0
   -3.6910   -0.0100   -3.6760 H   0  0  0  0  0
   -2.5530   -0.0040   -1.5180 H   0  0  0  0  0
    3.2310   -0.0050    4.7800 H   0  0  0  0  0
    2.4390   -0.9070   -4.9240 H   0  0  0  0  0
  1  2  1  0  0  0
  1  6  2  0  0  0
  1 18  1  0  0  0
  2  3  2  0  0  0
  2 17  1  0  0  0
  3  4  1  0  0  0
  3 23  1  0  0  0
  4  5  2  0  0  0
  4 24  1  0  0  0
  5  6  1  0  0  0
  5 25  1  0  0  0
  6 26  1  0  0  0
  7  8  1  0  0  0
  7 16  2  0  0  0
  7 19  1  0  0  0
  8  9  2  0  0  0
  8 27  1  0  0  0
  9 10  1  0  0  0
  9 28  1  0  0  0
 10 11  2  0  0  0
 10 22  1  0  0  0
 11 12  1  0  0  0
 11 16  1  0  0  0
 12 13  2  0  0  0
 12 29  1  0  0  0
 13 14  1  0  0  0
 13 30  1  0  0  0
 14 15  2  0  0  0
 14 31  1  0  0  0
 15 16  1  0  0  0
 15 32  1  0  0  0
 17 20  2  0  0  0
 17 21  1  0  0  0
 18 19  2  0  0  0
 21 33  1  0  0  0
 22 34  1  0  0  0
M  END
$$$$
