NAI
  CCTOOLS-1004241123

 73 77  0  0  1  0  0  0  0  0999 V2000
   -0.8300    0.7150    0.7820 P   0  0  0  0  0
   -1.2200   -0.2830    1.8030 O   0  0  0  0  0
   -0.1850    2.0000    1.5060 O   0  0  0  0  0
   -2.1310    1.1650   -0.0530 O   0  0  0  0  0
   -3.0940    1.6230    0.8980 C   0  0  0  0  0
   -4.3620    2.0680    0.1670 C   0  0  0  0  0
   -4.9980    0.9330   -0.4440 O   0  0  0  0  0
   -5.3610    2.6720    1.1720 C   0  0  0  0  0
   -5.6550    4.0310    0.8390 O   0  0  0  0  0
   -6.6280    1.7900    1.0190 C   0  0  0  0  0
   -7.8120    2.5890    1.0520 O   0  0  0  0  0
   -6.4220    1.1660   -0.3850 C   0  0  0  0  0
   -7.1560   -0.0960   -0.5050 N   0  0  0  0  0
   -6.6780   -1.3390   -0.2090 C   0  0  0  0  0
   -7.5980   -2.2330   -0.4320 N   0  0  0  0  0
   -8.7200   -1.6230   -0.8830 C   0  0  0  0  0
   -9.9950   -2.0640   -1.2750 C   0  0  0  0  0
  -10.3190   -3.4090   -1.2440 N   0  0  0  0  0
  -10.8830   -1.1600   -1.6760 N   0  0  0  0  0
  -10.5830    0.1250   -1.7080 C   0  0  0  0  0
   -9.4020    0.5850   -1.3500 N   0  0  0  0  0
   -8.4520   -0.2440   -0.9300 C   0  0  0  0  0
    0.2510    0.0640   -0.2190 O   0  0  0  0  0
    1.2470   -0.8220    0.6840 P   0  0  0  0  0
    0.5550   -2.2380    1.0140 O   0  0  0  0  0
    1.5350   -0.1070    1.9480 O   0  0  0  0  0
    2.6210   -1.0700   -0.1170 O   0  0  0  0  0
    3.5010   -1.7560    0.7750 C   0  0  0  0  0
    4.8330   -2.0240    0.0720 C   0  0  0  0  0
    5.5180   -0.7810   -0.1980 O   0  0  0  0  0
    5.7870   -2.8070    1.0010 C   0  0  0  0  0
    5.7540   -4.2010    0.6920 O   0  0  0  0  0
    7.1830   -2.2150    0.6920 C   0  0  0  0  0
    8.0550   -3.2280    0.1850 O   0  0  0  0  0
    6.9040   -1.1430   -0.3850 C   0  0  0  0  0
    7.7680    0.0220   -0.1800 N   0  0  0  0  0
    8.6890    0.3650   -1.1290 C   0  0  0  0  0
    9.2340    1.5950   -1.1380 C   0  0  0  0  0
   10.1920    1.9220   -2.1260 C   0  0  0  0  0
   10.5150    1.0930   -2.9580 O   0  0  0  0  0
   10.7470    3.1500   -2.1470 N   0  0  0  0  0
    8.8500    2.6270   -0.1160 C   0  0  0  0  0
    8.1420    1.9950    1.0460 C   0  0  0  0  0
    7.6500    0.7780    0.9790 C   0  0  0  0  0
    0.0550    2.6240    0.8070 H   0  0  0  0  0
   -3.3370    0.8140    1.5870 H   0  0  0  0  0
   -2.6820    2.4640    1.4570 H   0  0  0  0  0
   -4.1100    2.8060   -0.5950 H   0  0  0  0  0
   -4.9700    2.6050    2.1860 H   0  0  0  0  0
   -6.3290    4.3320    1.4650 H   0  0  0  0  0
   -6.6600    1.0170    1.7870 H   0  0  0  0  0
   -7.8830    2.9460    1.9480 H   0  0  0  0  0
   -6.7290    1.8630   -1.1640 H   0  0  0  0  0
   -5.6840   -1.5500    0.1550 H   0  0  0  0  0
   -9.6630   -4.0600   -0.9490 H   0  0  0  0  0
  -11.2030   -3.7020   -1.5170 H   0  0  0  0  0
  -11.3340    0.8260   -2.0410 H   0  0  0  0  0
    0.3840   -2.6700    0.1660 H   0  0  0  0  0
    3.0510   -2.7030    1.0740 H   0  0  0  0  0
    3.6740   -1.1410    1.6590 H   0  0  0  0  0
    4.6680   -2.5750   -0.8540 H   0  0  0  0  0
    5.5240   -2.6410    2.0450 H   0  0  0  0  0
    6.3660   -4.6370    1.3010 H   0  0  0  0  0
    7.6090   -1.7570    1.5840 H   0  0  0  0  0
    8.1410   -3.8960    0.8790 H   0  0  0  0  0
    7.0570   -1.5570   -1.3810 H   0  0  0  0  0
    8.9800   -0.3560   -1.8790 H   0  0  0  0  0
   11.4040    3.3740   -2.8250 H   0  0  0  0  0
   10.4860    3.8110   -1.4870 H   0  0  0  0  0
    8.1900    3.3560   -0.5840 H   0  0  0  0  0
    9.7460    3.1340    0.2440 H   0  0  0  0  0
    8.0370    2.5540    1.9640 H   0  0  0  0  0
    7.1460    0.3590    1.8380 H   0  0  0  0  0
  1  2  2  0  0  0
  1  3  1  0  0  0
  1  4  1  0  0  0
  1 23  1  0  0  0
  3 45  1  0  0  0
  4  5  1  0  0  0
  5  6  1  0  0  0
  5 46  1  0  0  0
  5 47  1  0  0  0
  6  7  1  0  0  0
  6  8  1  0  0  0
  6 48  1  0  0  0
  7 12  1  0  0  0
  8  9  1  0  0  0
  8 10  1  0  0  0
  8 49  1  0  0  0
  9 50  1  0  0  0
 10 11  1  0  0  0
 10 12  1  0  0  0
 10 51  1  0  0  0
 11 52  1  0  0  0
 12 13  1  0  0  0
 12 53  1  0  0  0
 13 14  1  0  0  0
 13 22  1  0  0  0
 14 15  2  0  0  0
 14 54  1  0  0  0
 15 16  1  0  0  0
 16 17  1  0  0  0
 16 22  2  0  0  0
 17 18  1  0  0  0
 17 19  2  0  0  0
 18 55  1  0  0  0
 18 56  1  0  0  0
 19 20  1  0  0  0
 20 21  2  0  0  0
 20 57  1  0  0  0
 21 22  1  0  0  0
 23 24  1  0  0  0
 24 25  1  0  0  0
 24 26  2  0  0  0
 24 27  1  0  0  0
 25 58  1  0  0  0
 27 28  1  0  0  0
 28 29  1  0  0  0
 28 59  1  0  0  0
 28 60  1  0  0  0
 29 30  1  0  0  0
 29 31  1  0  0  0
 29 61  1  0  0  0
 30 35  1  0  0  0
 31 32  1  0  0  0
 31 33  1  0  0  0
 31 62  1  0  0  0
 32 63  1  0  0  0
 33 34  1  0  0  0
 33 35  1  0  0  0
 33 64  1  0  0  0
 34 65  1  0  0  0
 35 36  1  0  0  0
 35 66  1  0  0  0
 36 37  1  0  0  0
 36 44  1  0  0  0
 37 38  2  0  0  0
 37 67  1  0  0  0
 38 39  1  0  0  0
 38 42  1  0  0  0
 39 40  2  0  0  0
 39 41  1  0  0  0
 41 68  1  0  0  0
 41 69  1  0  0  0
 42 43  1  0  0  0
 42 70  1  0  0  0
 42 71  1  0  0  0
 43 44  2  0  0  0
 43 72  1  0  0  0
 44 73  1  0  0  0
M  END
$$$$
