NAJ
  CCTOOLS-0919241038

 71 75  0  0  1  0  0  0  0  0999 V2000
   -0.9870    2.6140   -1.3270 P   0  0  0  0  0
   -0.4520    2.8510   -2.7570 O   0  0  0  0  0
   -1.8240    3.8340   -0.8820 O   0  5  0  0  0
   -1.9110    1.2950   -1.3110 O   0  0  0  0  0
   -3.0320    1.1190   -2.1800 C   0  0  0  0  0
   -3.6830   -0.2370   -1.9030 C   0  0  0  0  0
   -4.2610   -0.2430   -0.5870 O   0  0  0  0  0
   -4.8270   -0.4830   -2.9060 C   0  0  0  0  0
   -4.5730   -1.6610   -3.6750 O   0  0  0  0  0
   -6.0780   -0.6770   -2.0150 C   0  0  0  0  0
   -6.9000   -1.7350   -2.5130 O   0  0  0  0  0
   -5.4490   -1.0600   -0.6510 C   0  0  0  0  0
   -6.3610   -0.7330    0.4480 N   0  0  0  0  0
   -6.4080    0.4450    1.1330 C   0  0  0  0  0
   -7.3360    0.3920    2.0430 N   0  0  0  0  0
   -7.9430   -0.8180    2.0000 C   0  0  0  0  0
   -8.9840   -1.4290    2.7200 C   0  0  0  0  0
   -9.6310   -0.7520    3.7400 N   0  0  0  0  0
   -9.3330   -2.6700    2.3990 N   0  3  0  0  0
   -8.7210   -3.3230    1.4280 C   0  0  0  0  0
   -7.7420   -2.7920    0.7270 N   0  0  0  0  0
   -7.3280   -1.5530    0.9720 C   0  0  0  0  0
    0.2510    2.4140   -0.3170 O   0  0  0  0  0
    1.6500    3.1800   -0.0980 P   0  0  0  0  0
    2.2520    3.5560   -1.4710 O   0  0  0  0  0
    1.4110    4.4640    0.7280 O   0  5  0  0  0
    2.6710    2.2170    0.6900 O   0  0  0  0  0
    4.0330    2.5680    0.9450 C   0  0  0  0  0
    4.7170    1.4340    1.7110 C   0  0  0  0  0
    4.8120    0.2680    0.8750 O   0  0  0  0  0
    6.1540    1.8470    2.0850 C   0  0  0  0  0
    6.3250    1.8330    3.5030 O   0  0  0  0  0
    7.0440    0.7680    1.4210 C   0  0  0  0  0
    8.1120    0.3830    2.2890 O   0  0  0  0  0
    6.0440   -0.3990    1.2210 C   0  0  0  0  0
    6.4820   -1.2720    0.1290 N   0  3  0  0  0
    7.0200   -2.4390    0.4190 C   0  0  0  0  0
    7.4490   -3.2940   -0.5960 C   0  0  0  0  0
    8.0530   -4.6040   -0.2710 C   0  0  0  0  0
    8.1790   -4.9430    0.8900 O   0  0  0  0  0
    8.4630   -5.4220   -1.2610 N   0  0  0  0  0
    7.2970   -2.8920   -1.9290 C   0  0  0  0  0
    6.7250   -1.6570   -2.1800 C   0  0  0  0  0
    6.3220   -0.8690   -1.1170 C   0  0  0  0  0
   -3.7570    1.9130   -2.0020 H   0  0  0  0  0
   -2.6980    1.1570   -3.2160 H   0  0  0  0  0
   -2.9390   -1.0290   -1.9850 H   0  0  0  0  0
   -4.9520    0.3790   -3.5610 H   0  0  0  0  0
   -5.2620   -1.8640   -4.3230 H   0  0  0  0  0
   -6.6460    0.2500   -1.9350 H   0  0  0  0  0
   -7.2440   -1.5800   -3.4030 H   0  0  0  0  0
   -5.1880   -2.1190   -0.6330 H   0  0  0  0  0
   -5.7680    1.2950    0.9480 H   0  0  0  0  0
   -9.3670    0.1540    3.9640 H   0  0  0  0  0
  -10.3480   -1.1850    4.2290 H   0  0  0  0  0
  -10.0490   -3.1050    2.8880 H   0  0  0  0  0
   -9.0360   -4.3300    1.1990 H   0  0  0  0  0
    4.5490    2.7320   -0.0010 H   0  0  0  0  0
    4.0670    3.4810    1.5400 H   0  0  0  0  0
    4.1500    1.2000    2.6110 H   0  0  0  0  0
    6.3840    2.8340    1.6840 H   0  0  0  0  0
    7.2120    2.0850    3.7950 H   0  0  0  0  0
    7.4310    1.1180    0.4630 H   0  0  0  0  0
    8.7140    1.1050    2.5160 H   0  0  0  0  0
    5.9280   -0.9670    2.1440 H   0  0  0  0  0
    7.1310   -2.7350    1.4510 H   0  0  0  0  0
    8.3610   -5.1510   -2.1870 H   0  0  0  0  0
    8.8590   -6.2810   -1.0470 H   0  0  0  0  0
    7.6170   -3.5290   -2.7400 H   0  0  0  0  0
    6.5920   -1.3140   -3.1950 H   0  0  0  0  0
    5.8720    0.0930   -1.3100 H   0  0  0  0  0
  1  2  2  0  0  0
  1  3  1  0  0  0
  1  4  1  0  0  0
  1 23  1  0  0  0
  4  5  1  0  0  0
  5  6  1  0  0  0
  5 45  1  0  0  0
  5 46  1  0  0  0
  6  7  1  0  0  0
  6  8  1  0  0  0
  6 47  1  0  0  0
  7 12  1  0  0  0
  8  9  1  0  0  0
  8 10  1  0  0  0
  8 48  1  0  0  0
  9 49  1  0  0  0
 10 11  1  0  0  0
 10 12  1  0  0  0
 10 50  1  0  0  0
 11 51  1  0  0  0
 12 13  1  0  0  0
 12 52  1  0  0  0
 13 14  1  0  0  0
 13 22  1  0  0  0
 14 15  2  0  0  0
 14 53  1  0  0  0
 15 16  1  0  0  0
 16 17  1  0  0  0
 16 22  2  0  0  0
 17 18  1  0  0  0
 17 19  2  0  0  0
 18 54  1  0  0  0
 18 55  1  0  0  0
 19 20  1  0  0  0
 19 56  1  0  0  0
 20 21  2  0  0  0
 20 57  1  0  0  0
 21 22  1  0  0  0
 23 24  1  0  0  0
 24 25  2  0  0  0
 24 26  1  0  0  0
 24 27  1  0  0  0
 27 28  1  0  0  0
 28 29  1  0  0  0
 28 58  1  0  0  0
 28 59  1  0  0  0
 29 30  1  0  0  0
 29 31  1  0  0  0
 29 60  1  0  0  0
 30 35  1  0  0  0
 31 32  1  0  0  0
 31 33  1  0  0  0
 31 61  1  0  0  0
 32 62  1  0  0  0
 33 34  1  0  0  0
 33 35  1  0  0  0
 33 63  1  0  0  0
 34 64  1  0  0  0
 35 36  1  0  0  0
 35 65  1  0  0  0
 36 37  1  0  0  0
 36 44  2  0  0  0
 37 38  2  0  0  0
 37 66  1  0  0  0
 38 39  1  0  0  0
 38 42  1  0  0  0
 39 40  2  0  0  0
 39 41  1  0  0  0
 41 67  1  0  0  0
 41 68  1  0  0  0
 42 43  2  0  0  0
 42 69  1  0  0  0
 43 44  1  0  0  0
 43 70  1  0  0  0
 44 71  1  0  0  0
M  CHG  1   3  -1
M  CHG  1  19   1
M  CHG  1  26  -1
M  CHG  1  36   1
M  END
$$$$
