NCO
  CCTOOLS-0919241038

 25 24  0  0  0  0  0  0  0  0999 V2000
    0.0000   -0.0000    0.0000 CO  0  1  0  0  0
    0.2070    0.1020    1.7950 N   0  0  0  0  0
   -0.2070   -0.1020   -1.7950 N   0  0  0  0  0
    0.3990   -1.7650    0.0540 N   0  0  0  0  0
    1.7530    0.3890   -0.2250 N   0  0  0  0  0
   -0.3990    1.7650   -0.0540 N   0  0  0  0  0
   -1.7530   -0.3890    0.2250 N   0  0  0  0  0
    0.7490    0.9210    2.0250 H   0  0  0  0  0
   -0.6980    0.1630    2.2360 H   0  0  0  0  0
    0.6870   -0.7230    2.1250 H   0  0  0  0  0
   -1.0460    0.3910   -2.0650 H   0  0  0  0  0
    0.5900    0.3170   -2.2500 H   0  0  0  0  0
   -0.2820   -1.0690   -2.0710 H   0  0  0  0  0
    0.1290   -2.1970   -0.8170 H   0  0  0  0  0
    1.3910   -1.8810    0.1940 H   0  0  0  0  0
   -0.1020   -2.2000    0.8140 H   0  0  0  0  0
    2.2530   -0.4480   -0.4830 H   0  0  0  0  0
    1.8540    1.0800   -0.9540 H   0  0  0  0  0
    2.1300    0.7530    0.6380 H   0  0  0  0  0
   -0.3400    2.0940   -1.0060 H   0  0  0  0  0
   -1.3350    1.9090    0.2940 H   0  0  0  0  0
    0.2560    2.2750    0.5200 H   0  0  0  0  0
   -1.9190   -0.6500    1.1850 H   0  0  0  0  0
   -2.3100    0.4210   -0.0050 H   0  0  0  0  0
   -2.0080   -1.1550   -0.3810 H   0  0  0  0  0
  1  2  1  0  0  0
  1  3  1  0  0  0
  1  4  1  0  0  0
  1  5  1  0  0  0
  1  6  1  0  0  0
  1  7  1  0  0  0
  2  8  1  0  0  0
  2  9  1  0  0  0
  2 10  1  0  0  0
  3 11  1  0  0  0
  3 12  1  0  0  0
  3 13  1  0  0  0
  4 14  1  0  0  0
  4 15  1  0  0  0
  4 16  1  0  0  0
  5 17  1  0  0  0
  5 18  1  0  0  0
  5 19  1  0  0  0
  6 20  1  0  0  0
  6 21  1  0  0  0
  6 22  1  0  0  0
  7 23  1  0  0  0
  7 24  1  0  0  0
  7 25  1  0  0  0
M  CHG  1   1   3
M  END
$$$$
