NCS
  CCTOOLS-0919241038

 84 91  0  0  1  0  0  0  0  0999 V2000
    0.9210   -0.2910    0.4630 C   0  0  0  0  0
    0.7400   -1.5620    0.9750 C   0  0  0  0  0
   -0.4890   -2.2080    0.8340 C   0  0  0  0  0
   -1.5160   -1.5680    0.1360 C   0  0  0  0  0
   -1.3190   -0.3180   -0.4000 C   0  0  0  0  0
   -0.0950    0.3200   -0.2510 C   0  0  0  0  0
   -0.9740   -3.5210    1.2970 C   0  0  0  0  0
   -2.2260   -3.7240    0.9270 C   0  0  0  0  0
   -2.6940   -2.5110    0.1570 C   0  0  0  0  0
   -3.8040   -1.9020    0.8200 O   0  0  0  0  0
    0.3510    1.6850   -0.7380 C   0  0  0  0  0
    1.6550    1.9920    0.0480 C   0  0  0  0  0
    2.1430    0.6020    0.4800 C   0  0  0  0  0
   -3.0810   -2.9070   -1.2700 C   0  0  0  0  0
   -3.5760   -1.7500   -2.0050 O   0  0  0  0  0
   -4.8460   -1.9770   -2.3710 C   0  0  0  0  0
   -5.5070   -1.1740   -2.9980 O   0  0  0  0  0
   -5.3160   -3.1670   -1.9840 O   0  0  0  0  0
   -4.2750   -3.8810   -1.2560 C   0  0  0  0  0
    1.2540    2.7800    1.2040 O   0  0  0  0  0
    0.1860    3.5280    0.8600 C   0  0  0  0  0
   -0.0750    4.6290    1.2830 O   0  0  0  0  0
   -0.6240    2.7500   -0.1450 C   0  0  0  0  0
   -0.9970    3.6780   -1.2710 C   0  0  0  0  0
   -0.1420    4.2790   -1.8900 O   0  0  0  0  0
   -2.3620    3.8340   -1.5900 C   0  0  0  0  0
   -3.3290    3.1750   -0.9200 C   0  0  0  0  0
   -3.0460    2.2540    0.1820 C   0  0  0  0  0
   -1.7210    2.0270    0.5860 C   0  0  0  0  0
   -1.4480    1.1650    1.6180 C   0  0  0  0  0
   -2.4900    0.5110    2.2700 C   0  0  0  0  0
   -2.2210   -0.3420    3.2910 O   0  0  0  0  0
   -3.8060    0.7280    1.8760 C   0  0  0  0  0
   -4.0890    1.5910    0.8420 C   0  0  0  0  0
   -5.5170    1.8220    0.4200 C   0  0  0  0  0
   -0.8170   -0.2550    3.5410 C   0  0  0  0  0
    3.1210    0.1150   -0.4410 O   0  0  0  0  0
    4.3990    0.3310    0.1630 C   0  0  0  0  0
    5.4950    0.0970   -0.8800 C   0  0  0  0  0
    5.3300    1.0480   -1.9870 N   0  3  0  0  0
    5.5530    2.4140   -1.4970 C   0  0  0  0  0
    5.3820   -1.3360   -1.4130 C   0  0  0  0  0
    6.4880   -1.6150   -2.2740 O   0  0  0  0  0
    5.3950   -2.3040   -0.2240 C   0  0  0  0  0
    6.6710   -2.2560    0.4180 O   0  0  0  0  0
    4.3050   -1.8900    0.7670 C   0  0  0  0  0
    4.2880   -2.8690    1.9430 C   0  0  0  0  0
    4.5670   -0.5740    1.2520 O   0  0  0  0  0
    1.5430   -2.0460    1.5100 H   0  0  0  0  0
   -2.1180    0.1690   -0.9380 H   0  0  0  0  0
   -0.3820   -4.2250    1.8640 H   0  0  0  0  0
   -2.8140   -4.6040    1.1390 H   0  0  0  0  0
   -3.5340   -1.7510    1.7360 H   0  0  0  0  0
    0.4460    1.7440   -1.8220 H   0  0  0  0  0
    2.3920    2.5120   -0.5640 H   0  0  0  0  0
    2.5620    0.6460    1.4850 H   0  0  0  0  0
   -2.2300   -3.3520   -1.7860 H   0  0  0  0  0
   -4.0170   -4.8080   -1.7680 H   0  0  0  0  0
   -4.5920   -4.0820   -0.2330 H   0  0  0  0  0
   -2.6400    4.5000   -2.3940 H   0  0  0  0  0
   -4.3580    3.3350   -1.2080 H   0  0  0  0  0
   -0.4270    0.9950    1.9250 H   0  0  0  0  0
   -4.6110    0.2180    2.3850 H   0  0  0  0  0
   -5.7900    1.1010   -0.3490 H   0  0  0  0  0
   -6.1750    1.7010    1.2820 H   0  0  0  0  0
   -5.6200    2.8330    0.0240 H   0  0  0  0  0
   -0.5730    0.7420    3.9070 H   0  0  0  0  0
   -0.5350   -0.9960    4.2900 H   0  0  0  0  0
   -0.2710   -0.4470    2.6180 H   0  0  0  0  0
    4.4580    1.3550    0.5300 H   0  0  0  0  0
    6.4720    0.2390   -0.4190 H   0  0  0  0  0
    4.3960    0.9720   -2.3600 H   0  0  0  0  0
    6.0000    0.8380   -2.7130 H   0  0  0  0  0
    5.4310    3.1200   -2.3180 H   0  0  0  0  0
    4.8300    2.6410   -0.7130 H   0  0  0  0  0
    6.5620    2.4960   -1.0940 H   0  0  0  0  0
    4.4500   -1.4480   -1.9660 H   0  0  0  0  0
    6.3770   -2.5240   -2.5860 H   0  0  0  0  0
    5.2010   -3.3170   -0.5770 H   0  0  0  0  0
    6.6350   -2.8780    1.1570 H   0  0  0  0  0
    3.3360   -1.9060    0.2680 H   0  0  0  0  0
    5.2140   -2.7730    2.5090 H   0  0  0  0  0
    3.4400   -2.6450    2.5900 H   0  0  0  0  0
    4.1970   -3.8880    1.5650 H   0  0  0  0  0
  1  2  2  0  0  0
  1  6  1  0  0  0
  1 13  1  0  0  0
  2  3  1  0  0  0
  2 49  1  0  0  0
  3  4  2  0  0  0
  3  7  1  0  0  0
  4  5  1  0  0  0
  4  9  1  0  0  0
  5  6  2  0  0  0
  5 50  1  0  0  0
  6 11  1  0  0  0
  7  8  2  0  0  0
  7 51  1  0  0  0
  8  9  1  0  0  0
  8 52  1  0  0  0
  9 10  1  0  0  0
  9 14  1  0  0  0
 10 53  1  0  0  0
 11 12  1  0  0  0
 11 23  1  0  0  0
 11 54  1  0  0  0
 12 13  1  0  0  0
 12 20  1  0  0  0
 12 55  1  0  0  0
 13 37  1  0  0  0
 13 56  1  0  0  0
 14 15  1  0  0  0
 14 19  1  0  0  0
 14 57  1  0  0  0
 15 16  1  0  0  0
 16 17  2  0  0  0
 16 18  1  0  0  0
 18 19  1  0  0  0
 19 58  1  0  0  0
 19 59  1  0  0  0
 20 21  1  0  0  0
 21 22  2  0  0  0
 21 23  1  0  0  0
 23 24  1  0  0  0
 23 29  1  0  0  0
 24 25  2  0  0  0
 24 26  1  0  0  0
 26 27  2  0  0  0
 26 60  1  0  0  0
 27 28  1  0  0  0
 27 61  1  0  0  0
 28 29  2  0  0  0
 28 34  1  0  0  0
 29 30  1  0  0  0
 30 31  2  0  0  0
 30 62  1  0  0  0
 31 32  1  0  0  0
 31 33  1  0  0  0
 32 36  1  0  0  0
 33 34  2  0  0  0
 33 63  1  0  0  0
 34 35  1  0  0  0
 35 64  1  0  0  0
 35 65  1  0  0  0
 35 66  1  0  0  0
 36 67  1  0  0  0
 36 68  1  0  0  0
 36 69  1  0  0  0
 37 38  1  0  0  0
 38 39  1  0  0  0
 38 48  1  0  0  0
 38 70  1  0  0  0
 39 40  1  0  0  0
 39 42  1  0  0  0
 39 71  1  0  0  0
 40 41  1  0  0  0
 40 72  1  0  0  0
 40 73  1  0  0  0
 41 74  1  0  0  0
 41 75  1  0  0  0
 41 76  1  0  0  0
 42 43  1  0  0  0
 42 44  1  0  0  0
 42 77  1  0  0  0
 43 78  1  0  0  0
 44 45  1  0  0  0
 44 46  1  0  0  0
 44 79  1  0  0  0
 45 80  1  0  0  0
 46 47  1  0  0  0
 46 48  1  0  0  0
 46 81  1  0  0  0
 47 82  1  0  0  0
 47 83  1  0  0  0
 47 84  1  0  0  0
M  CHG  1  40   1
M  END
$$$$
