NDG
  CCTOOLS-1004241123

 30 30  0  0  1  0  0  0  0  0999 V2000
   -0.2070    1.2020    0.1400 C   0  0  0  0  0
   -0.8590   -0.1320   -0.2340 C   0  0  0  0  0
    0.0100   -1.2800    0.2900 C   0  0  0  0  0
    1.4220   -1.1410   -0.2870 C   0  0  0  0  0
    1.9860    0.2310    0.0880 C   0  0  0  0  0
    3.3720    0.4010   -0.5350 C   0  0  0  0  0
   -3.2500    0.3330   -0.2610 C   0  0  0  0  0
   -4.6210    0.2520    0.3600 C   0  0  0  0  0
    1.1150    1.2530   -0.4020 O   0  0  0  0  0
   -0.5530   -2.5290   -0.1170 O   0  0  0  0  0
    2.2600   -2.1650    0.2520 O   0  0  0  0  0
    3.9470    1.6320   -0.0900 O   0  0  0  0  0
   -3.1000    0.8900   -1.3280 O   0  0  0  0  0
   -2.1910   -0.2120    0.3700 N   0  0  0  0  0
   -0.1440    1.3200    1.5620 O   0  0  0  0  0
   -0.7990    2.0220   -0.2680 H   0  0  0  0  0
   -0.9440   -0.2050   -1.3180 H   0  0  0  0  0
    0.0540   -1.2360    1.3780 H   0  0  0  0  0
    1.3830   -1.2350   -1.3720 H   0  0  0  0  0
    2.0620    0.3090    1.1730 H   0  0  0  0  0
    4.0110   -0.4280   -0.2310 H   0  0  0  0  0
    3.2840    0.4130   -1.6210 H   0  0  0  0  0
   -5.1190   -0.6570    0.0220 H   0  0  0  0  0
   -4.5280    0.2330    1.4460 H   0  0  0  0  0
   -5.2080    1.1200    0.0610 H   0  0  0  0  0
   -0.0520   -3.3010    0.1810 H   0  0  0  0  0
    3.1720   -2.1380   -0.0710 H   0  0  0  0  0
    4.8290    1.8060   -0.4470 H   0  0  0  0  0
   -2.3120   -0.6570    1.2230 H   0  0  0  0  0
    0.2580    2.1430    1.8710 H   0  0  0  0  0
  1  2  1  0  0  0
  1  9  1  0  0  0
  1 15  1  0  0  0
  1 16  1  0  0  0
  2  3  1  0  0  0
  2 14  1  0  0  0
  2 17  1  0  0  0
  3  4  1  0  0  0
  3 10  1  0  0  0
  3 18  1  0  0  0
  4  5  1  0  0  0
  4 11  1  0  0  0
  4 19  1  0  0  0
  5  6  1  0  0  0
  5  9  1  0  0  0
  5 20  1  0  0  0
  6 12  1  0  0  0
  6 21  1  0  0  0
  6 22  1  0  0  0
  7  8  1  0  0  0
  7 13  2  0  0  0
  7 14  1  0  0  0
  8 23  1  0  0  0
  8 24  1  0  0  0
  8 25  1  0  0  0
 10 26  1  0  0  0
 11 27  1  0  0  0
 12 28  1  0  0  0
 14 29  1  0  0  0
 15 30  1  0  0  0
M  END
$$$$
