NDP
  CCTOOLS-1004241123

 78 82  0  0  1  0  0  0  0  0999 V2000
   -1.2750    0.0430   -0.0380 P   0  0  0  0  0
   -1.7100   -1.2930   -0.5000 O   0  0  0  0  0
   -2.5650    0.9150    0.3710 O   0  0  0  0  0
   -0.4790    0.7870   -1.2230 O   0  0  0  0  0
   -1.3850    0.9010   -2.3220 C   0  0  0  0  0
   -0.6870    1.6030   -3.4890 C   0  0  0  0  0
    0.4390    0.8240   -3.9240 O   0  0  0  0  0
   -1.6540    1.7230   -4.6820 C   0  0  0  0  0
   -1.8630    3.0940   -5.0290 O   0  0  0  0  0
   -0.9270    0.9770   -5.8320 C   0  0  0  0  0
   -1.0730    1.6800   -7.0680 O   0  0  0  0  0
    0.5460    1.0010   -5.3530 C   0  0  0  0  0
    1.3040   -0.0990   -5.9540 N   0  0  0  0  0
    1.3880   -1.3740   -5.4790 C   0  0  0  0  0
    2.1450   -2.0900   -6.2590 N   0  0  0  0  0
    2.5940   -1.3220   -7.2800 C   0  0  0  0  0
    3.4220   -1.5440   -8.3940 C   0  0  0  0  0
    3.9760   -2.7910   -8.6270 N   0  0  0  0  0
    3.6590   -0.5300   -9.2190 N   0  0  0  0  0
    3.1340    0.6620   -9.0050 C   0  0  0  0  0
    2.3540    0.9160   -7.9760 N   0  0  0  0  0
    2.0560   -0.0370   -7.1000 C   0  0  0  0  0
   -0.3090   -0.1180    1.2380 O   0  0  0  0  0
   -1.1650   -0.8650    2.3780 P   0  0  0  0  0
   -2.3520   -0.0490    2.7180 O   0  0  0  0  0
   -1.6400   -2.3040    1.8350 O   0  0  0  0  0
   -0.2550   -1.0610    3.6920 O   0  0  0  0  0
   -1.0660   -1.7260    4.6610 C   0  0  0  0  0
   -0.2570   -1.9440    5.9410 C   0  0  0  0  0
    0.1500   -0.6760    6.5000 O   0  0  0  0  0
   -1.1360   -2.5920    7.0330 C   0  0  0  0  0
   -0.9160   -4.0030    7.0810 O   0  0  0  0  0
   -0.6610   -1.9240    8.3450 C   0  0  0  0  0
   -0.1360   -2.9030    9.2440 O   0  0  0  0  0
    0.4460   -0.9490    7.8870 C   0  0  0  0  0
    0.3940    0.2860    8.6720 N   0  0  0  0  0
    1.4850    0.6820    9.3940 C   0  0  0  0  0
    1.5920    1.9520    9.8260 C   0  0  0  0  0
    2.7270    2.3340   10.5800 C   0  0  0  0  0
    3.5940    1.5170   10.8310 O   0  0  0  0  0
    2.8480    3.6020   11.0190 N   0  0  0  0  0
    0.5280    2.9700    9.5300 C   0  0  0  0  0
   -0.7370    2.3070    9.0750 C   0  0  0  0  0
   -0.7620    1.0530    8.6830 C   0  0  0  0  0
   -1.6390    0.6220   -8.1410 P   0  0  0  0  0
   -2.9440    0.0990   -7.6770 O   0  0  0  0  0
   -1.8290    1.3510   -9.5640 O   0  0  0  0  0
   -0.5970   -0.5940   -8.2960 O   0  0  0  0  0
   -2.2380    1.7770    0.6650 H   0  0  0  0  0
   -1.7030   -0.0930   -2.6350 H   0  0  0  0  0
   -2.2560    1.4810   -2.0170 H   0  0  0  0  0
   -0.3550    2.5940   -3.1790 H   0  0  0  0  0
   -2.6040    1.2390   -4.4540 H   0  0  0  0  0
   -2.3170    3.5050   -4.2810 H   0  0  0  0  0
   -1.2900   -0.0460   -5.9240 H   0  0  0  0  0
    1.0110    1.9580   -5.5880 H   0  0  0  0  0
    0.8980   -1.7370   -4.5880 H   0  0  0  0  0
    4.5450   -2.9320   -9.3990 H   0  0  0  0  0
    3.7950   -3.5240   -8.0180 H   0  0  0  0  0
    3.3540    1.4590   -9.7000 H   0  0  0  0  0
   -0.8380   -2.8030    1.6260 H   0  0  0  0  0
   -1.3880   -2.6900    4.2670 H   0  0  0  0  0
   -1.9410   -1.1150    4.8840 H   0  0  0  0  0
    0.6140   -2.5660    5.7370 H   0  0  0  0  0
   -2.1890   -2.3770    6.8530 H   0  0  0  0  0
   -1.4890   -4.3520    7.7770 H   0  0  0  0  0
   -1.4800   -1.3770    8.8130 H   0  0  0  0  0
   -0.8570   -3.5140    9.4440 H   0  0  0  0  0
    1.4260   -1.4170    7.9810 H   0  0  0  0  0
    2.2660   -0.0280    9.6190 H   0  0  0  0  0
    3.6260    3.8640   11.5350 H   0  0  0  0  0
    2.1590    4.2540   10.8150 H   0  0  0  0  0
    0.3250    3.5560   10.4260 H   0  0  0  0  0
    0.8880    3.6340    8.7430 H   0  0  0  0  0
   -1.6560    2.8760    9.0750 H   0  0  0  0  0
   -1.6950    0.6140    8.3630 H   0  0  0  0  0
   -2.1690    0.6840  -10.1760 H   0  0  0  0  0
    0.2360   -0.2110   -8.5990 H   0  0  0  0  0
  1  2  2  0  0  0
  1  3  1  0  0  0
  1  4  1  0  0  0
  1 23  1  0  0  0
  3 49  1  0  0  0
  4  5  1  0  0  0
  5  6  1  0  0  0
  5 50  1  0  0  0
  5 51  1  0  0  0
  6  7  1  0  0  0
  6  8  1  0  0  0
  6 52  1  0  0  0
  7 12  1  0  0  0
  8  9  1  0  0  0
  8 10  1  0  0  0
  8 53  1  0  0  0
  9 54  1  0  0  0
 10 11  1  0  0  0
 10 12  1  0  0  0
 10 55  1  0  0  0
 11 45  1  0  0  0
 12 13  1  0  0  0
 12 56  1  0  0  0
 13 14  1  0  0  0
 13 22  1  0  0  0
 14 15  2  0  0  0
 14 57  1  0  0  0
 15 16  1  0  0  0
 16 17  1  0  0  0
 16 22  2  0  0  0
 17 18  1  0  0  0
 17 19  2  0  0  0
 18 58  1  0  0  0
 18 59  1  0  0  0
 19 20  1  0  0  0
 20 21  2  0  0  0
 20 60  1  0  0  0
 21 22  1  0  0  0
 23 24  1  0  0  0
 24 25  2  0  0  0
 24 26  1  0  0  0
 24 27  1  0  0  0
 26 61  1  0  0  0
 27 28  1  0  0  0
 28 29  1  0  0  0
 28 62  1  0  0  0
 28 63  1  0  0  0
 29 30  1  0  0  0
 29 31  1  0  0  0
 29 64  1  0  0  0
 30 35  1  0  0  0
 31 32  1  0  0  0
 31 33  1  0  0  0
 31 65  1  0  0  0
 32 66  1  0  0  0
 33 34  1  0  0  0
 33 35  1  0  0  0
 33 67  1  0  0  0
 34 68  1  0  0  0
 35 36  1  0  0  0
 35 69  1  0  0  0
 36 37  1  0  0  0
 36 44  1  0  0  0
 37 38  2  0  0  0
 37 70  1  0  0  0
 38 39  1  0  0  0
 38 42  1  0  0  0
 39 40  2  0  0  0
 39 41  1  0  0  0
 41 71  1  0  0  0
 41 72  1  0  0  0
 42 43  1  0  0  0
 42 73  1  0  0  0
 42 74  1  0  0  0
 43 44  2  0  0  0
 43 75  1  0  0  0
 44 76  1  0  0  0
 45 46  2  0  0  0
 45 47  1  0  0  0
 45 48  1  0  0  0
 47 77  1  0  0  0
 48 78  1  0  0  0
M  END
$$$$
