NEP
  CCTOOLS-1004241124

 25 25  0  0  1  0  0  0  0  0999 V2000
    1.0380    1.2220    2.4010 N   0  0  0  0  0
   -0.0950    0.4120    2.8660 C   0  0  0  0  0
    0.1540   -0.0350    4.2830 C   0  0  0  0  0
    1.2850   -0.2110    4.6700 O   0  0  0  0  0
   -0.2510   -0.8130    1.9640 C   0  0  0  0  0
   -0.5010   -0.3650    0.5470 C   0  0  0  0  0
   -1.5340    0.3790    0.1260 N   0  0  0  0  0
    0.2700   -0.6480   -0.5190 C   0  0  0  0  0
   -1.4280    0.5750   -1.1580 C   0  0  0  0  0
   -0.3170   -0.0510   -1.6020 N   0  0  0  0  0
    0.2250   -0.0900   -3.1490 P   0  0  0  0  0
   -0.7760    0.7450   -4.0910 O   0  0  0  0  0
    1.6960    0.5610   -3.2180 O   0  0  0  0  0
    0.2850   -1.4940   -3.6150 O   0  0  0  0  0
   -0.8780   -0.2370    5.1150 O   0  0  0  0  0
    0.8770    1.4110    1.4230 H   0  0  0  0  0
    1.8550    0.6320    2.4520 H   0  0  0  0  0
   -1.0070    1.0080    2.8290 H   0  0  0  0  0
    0.6600   -1.4090    2.0010 H   0  0  0  0  0
   -1.0920   -1.4140    2.3090 H   0  0  0  0  0
    1.1770   -1.2330   -0.5210 H   0  0  0  0  0
   -2.1160    1.1420   -1.7680 H   0  0  0  0  0
   -0.4210    0.6970   -4.9890 H   0  0  0  0  0
    1.6130    1.4720   -2.9060 H   0  0  0  0  0
   -0.7180   -0.5240    6.0250 H   0  0  0  0  0
  1  2  1  0  0  0
  1 16  1  0  0  0
  1 17  1  0  0  0
  2  3  1  0  0  0
  2  5  1  0  0  0
  2 18  1  0  0  0
  3  4  2  0  0  0
  3 15  1  0  0  0
  5  6  1  0  0  0
  5 19  1  0  0  0
  5 20  1  0  0  0
  6  7  1  0  0  0
  6  8  2  0  0  0
  7  9  2  0  0  0
  8 10  1  0  0  0
  8 21  1  0  0  0
  9 10  1  0  0  0
  9 22  1  0  0  0
 10 11  1  0  0  0
 11 12  1  0  0  0
 11 13  1  0  0  0
 11 14  2  0  0  0
 12 23  1  0  0  0
 13 24  1  0  0  0
 15 25  1  0  0  0
M  END
$$$$
