NEQ
  CCTOOLS-1004241124

 16 16  0  0  0  0  0  0  0  0999 V2000
    0.0000    0.2360    0.2590 N   0  0  0  0  0
   -2.2460    0.1540   -0.1060 O   0  0  0  0  0
    2.2470    0.1540   -0.1170 O   0  0  0  0  0
   -1.1000    0.0630   -0.4940 C   0  0  0  0  0
   -0.6750   -0.2560   -1.8750 C   0  0  0  0  0
    0.6670   -0.2580   -1.8770 C   0  0  0  0  0
    1.0980    0.0650   -0.4990 C   0  0  0  0  0
    0.0040    0.5660    1.6860 C   0  0  0  0  0
    0.0030   -0.7240    2.5080 C   0  0  0  0  0
   -1.3210   -0.4500   -2.7180 H   0  0  0  0  0
    1.3090   -0.4540   -2.7230 H   0  0  0  0  0
   -0.8840    1.1500    1.9260 H   0  0  0  0  0
    0.8950    1.1460    1.9230 H   0  0  0  0  0
    0.0060   -0.4790    3.5700 H   0  0  0  0  0
   -0.8870   -1.3050    2.2710 H   0  0  0  0  0
    0.8920   -1.3080    2.2680 H   0  0  0  0  0
  1  4  1  0  0  0
  1  7  1  0  0  0
  1  8  1  0  0  0
  2  4  2  0  0  0
  3  7  2  0  0  0
  4  5  1  0  0  0
  5  6  2  0  0  0
  5 10  1  0  0  0
  6  7  1  0  0  0
  6 11  1  0  0  0
  8  9  1  0  0  0
  8 12  1  0  0  0
  8 13  1  0  0  0
  9 14  1  0  0  0
  9 15  1  0  0  0
  9 16  1  0  0  0
M  END
$$$$
