NGA
  CCTOOLS-1004241124

 30 30  0  0  1  0  0  0  0  0999 V2000
    0.0710    1.0720   -0.4120 C   0  0  0  0  0
    0.7400   -0.2500   -0.0290 C   0  0  0  0  0
   -0.0790   -1.4120   -0.6010 C   0  0  0  0  0
   -1.5160   -1.3160   -0.0800 C   0  0  0  0  0
   -2.0980    0.0480   -0.4610 C   0  0  0  0  0
   -3.5120    0.1760    0.1080 C   0  0  0  0  0
    3.1160    0.2730    0.1010 C   0  0  0  0  0
    4.5120    0.2320   -0.4650 C   0  0  0  0  0
    2.0970   -0.2900   -0.5780 N   0  0  0  0  0
    0.7970    2.1580    0.1660 O   0  0  0  0  0
    0.4980   -2.6520   -0.1870 O   0  0  0  0  0
   -1.5190   -1.4560    1.3420 O   0  0  0  0  0
   -1.2730    1.0840    0.0760 O   0  0  0  0  0
   -4.0990    1.3980   -0.3450 O   0  0  0  0  0
    2.9090    0.8120    1.1680 O   0  0  0  0  0
    0.0640    1.1750   -1.4970 H   0  0  0  0  0
    0.7830   -0.3360    1.0570 H   0  0  0  0  0
   -0.0810   -1.3550   -1.6890 H   0  0  0  0  0
   -2.1190   -2.1060   -0.5260 H   0  0  0  0  0
   -2.1330    0.1380   -1.5470 H   0  0  0  0  0
   -4.1180   -0.6640   -0.2310 H   0  0  0  0  0
   -3.4680    0.1760    1.1960 H   0  0  0  0  0
    4.5280    0.7380   -1.4300 H   0  0  0  0  0
    5.1960    0.7340    0.2200 H   0  0  0  0  0
    4.8220   -0.8050   -0.5930 H   0  0  0  0  0
    2.2620   -0.7210   -1.4320 H   0  0  0  0  0
    0.4290    3.0300   -0.0360 H   0  0  0  0  0
    0.0290   -3.4330   -0.5140 H   0  0  0  0  0
   -2.3980   -1.4040    1.7400 H   0  0  0  0  0
   -4.9980    1.5460   -0.0220 H   0  0  0  0  0
  1  2  1  0  0  0
  1 10  1  0  0  0
  1 13  1  0  0  0
  1 16  1  0  0  0
  2  3  1  0  0  0
  2  9  1  0  0  0
  2 17  1  0  0  0
  3  4  1  0  0  0
  3 11  1  0  0  0
  3 18  1  0  0  0
  4  5  1  0  0  0
  4 12  1  0  0  0
  4 19  1  0  0  0
  5  6  1  0  0  0
  5 13  1  0  0  0
  5 20  1  0  0  0
  6 14  1  0  0  0
  6 21  1  0  0  0
  6 22  1  0  0  0
  7  8  1  0  0  0
  7  9  1  0  0  0
  7 15  2  0  0  0
  8 23  1  0  0  0
  8 24  1  0  0  0
  8 25  1  0  0  0
  9 26  1  0  0  0
 10 27  1  0  0  0
 11 28  1  0  0  0
 12 29  1  0  0  0
 14 30  1  0  0  0
M  END
$$$$
