NIO
  CCTOOLS-1011241542

 14 14  0  0  0  0  0  0  0  0999 V2000
    1.2060   -0.0010   -1.8220 N   0  0  0  0  0
    1.1740    0.0040   -0.5050 C   0  0  0  0  0
   -0.0440   -0.0000    0.1740 C   0  0  0  0  0
   -1.2330    0.0000   -0.5670 C   0  0  0  0  0
   -1.1440    0.0000   -1.9470 C   0  0  0  0  0
    0.1030   -0.0000   -2.5460 C   0  0  0  0  0
   -0.0810   -0.0000    1.6510 C   0  0  0  0  0
   -1.1470    0.0000    2.2320 O   0  0  0  0  0
    1.0680   -0.0010    2.3530 O   0  0  0  0  0
    2.0980    0.0030    0.0520 H   0  0  0  0  0
   -2.1930    0.0000   -0.0740 H   0  0  0  0  0
   -2.0390    0.0000   -2.5520 H   0  0  0  0  0
    0.1750   -0.0000   -3.6230 H   0  0  0  0  0
    1.0450   -0.0010    3.3190 H   0  0  0  0  0
  1  2  2  0  0  0
  1  6  1  0  0  0
  2  3  1  0  0  0
  2 10  1  0  0  0
  3  4  2  0  0  0
  3  7  1  0  0  0
  4  5  1  0  0  0
  4 11  1  0  0  0
  5  6  2  0  0  0
  5 12  1  0  0  0
  6 13  1  0  0  0
  7  8  2  0  0  0
  7  9  1  0  0  0
  9 14  1  0  0  0
M  END
$$$$
