NLC
  CCTOOLS-0919241040

 51 52  0  0  1  0  0  0  0  0999 V2000
   -3.4010    1.0880   -0.2360 C   0  0  0  0  0
   -2.8210   -0.3060    0.0170 C   0  0  0  0  0
   -1.4950   -0.1700    0.7710 C   0  0  0  0  0
   -0.5460    0.7150   -0.0430 C   0  0  0  0  0
   -1.2130    2.0700   -0.2930 C   0  0  0  0  0
   -0.2960    2.9390   -1.1570 C   0  0  0  0  0
   -4.7670   -1.7580    0.2200 C   0  0  0  0  0
   -5.7360   -2.5640    1.0460 C   0  0  0  0  0
   -2.4560    1.8700   -0.9700 O   0  0  0  0  0
   -0.9100   -1.4620    0.9470 O   0  0  0  0  0
    0.6690    0.9090    0.6850 O   0  0  0  0  0
   -0.8620    4.2450   -1.2880 O   0  0  0  0  0
   -4.8910   -1.7110   -0.9860 O   0  0  0  0  0
   -3.7630   -1.0890    0.8200 N   0  0  0  0  0
   -3.6750    1.7240    1.0140 O   0  0  0  0  0
    1.8410    0.4980   -0.0220 C   0  0  0  0  0
    3.0830    0.8550    0.7990 C   0  0  0  0  0
    4.3320    0.3590    0.0640 C   0  0  0  0  0
    4.2060   -1.1490   -0.1740 C   0  0  0  0  0
    2.9200   -1.4290   -0.9570 C   0  0  0  0  0
    2.7560   -2.9380   -1.1460 C   0  0  0  0  0
    3.1570    2.2730    0.9620 O   0  0  0  0  0
    5.4910    0.6230    0.8570 O   0  0  0  0  0
    4.1560   -1.8280    1.0830 O   0  0  0  0  0
    1.8010   -0.9140   -0.2320 O   0  0  0  0  0
    1.6210   -3.1940   -1.9750 O   0  0  0  0  0
   -4.3230    1.0000   -0.8100 H   0  0  0  0  0
   -2.6490   -0.8070   -0.9360 H   0  0  0  0  0
   -1.6740    0.2860    1.7450 H   0  0  0  0  0
   -0.3270    0.2350   -0.9960 H   0  0  0  0  0
   -1.3940    2.5680    0.6590 H   0  0  0  0  0
    0.6840    3.0130   -0.6850 H   0  0  0  0  0
   -0.1920    2.4880   -2.1430 H   0  0  0  0  0
   -6.1020   -3.4050    0.4580 H   0  0  0  0  0
   -5.2310   -2.9360    1.9380 H   0  0  0  0  0
   -6.5750   -1.9330    1.3400 H   0  0  0  0  0
   -1.4610   -2.0780    1.4490 H   0  0  0  0  0
   -0.3320    4.8510   -1.8240 H   0  0  0  0  0
   -3.6630   -1.1270    1.7840 H   0  0  0  0  0
   -4.0460    2.6130    0.9300 H   0  0  0  0  0
    1.8830    1.0080   -0.9840 H   0  0  0  0  0
    3.0230    0.3780    1.7770 H   0  0  0  0  0
    4.4190    0.8730   -0.8940 H   0  0  0  0  0
    5.0650   -1.5010   -0.7440 H   0  0  0  0  0
    2.9760   -0.9440   -1.9320 H   0  0  0  0  0
    3.6500   -3.3450   -1.6180 H   0  0  0  0  0
    2.6110   -3.4120   -0.1750 H   0  0  0  0  0
    2.3970    2.6560    1.4210 H   0  0  0  0  0
    5.6290    1.5590    1.0530 H   0  0  0  0  0
    4.9380   -1.6910    1.6350 H   0  0  0  0  0
    1.4560   -4.1320   -2.1380 H   0  0  0  0  0
  1  2  1  0  0  0
  1  9  1  0  0  0
  1 15  1  0  0  0
  1 27  1  0  0  0
  2  3  1  0  0  0
  2 14  1  0  0  0
  2 28  1  0  0  0
  3  4  1  0  0  0
  3 10  1  0  0  0
  3 29  1  0  0  0
  4 11  1  0  0  0
  4  5  1  0  0  0
  4 30  1  0  0  0
  5  6  1  0  0  0
  5  9  1  0  0  0
  5 31  1  0  0  0
  6 12  1  0  0  0
  6 32  1  0  0  0
  6 33  1  0  0  0
  7 13  2  0  0  0
  7  8  1  0  0  0
  8 36  1  0  0  0
  8 34  1  0  0  0
  8 35  1  0  0  0
 10 37  1  0  0  0
 11 16  1  0  0  0
 12 38  1  0  0  0
 14  7  1  0  0  0
 14 39  1  0  0  0
 15 40  1  0  0  0
 16 25  1  0  0  0
 16 41  1  0  0  0
 17 18  1  0  0  0
 17 16  1  0  0  0
 17 22  1  0  0  0
 17 42  1  0  0  0
 18 19  1  0  0  0
 18 23  1  0  0  0
 18 43  1  0  0  0
 19 24  1  0  0  0
 19 20  1  0  0  0
 19 44  1  0  0  0
 20 21  1  0  0  0
 20 25  1  0  0  0
 20 45  1  0  0  0
 21 26  1  0  0  0
 21 46  1  0  0  0
 21 47  1  0  0  0
 22 48  1  0  0  0
 23 49  1  0  0  0
 24 50  1  0  0  0
 26 51  1  0  0  0
M  END
$$$$
