NLG
  CCTOOLS-1004241124

 24 23  0  0  1  0  0  0  0  0999 V2000
   -0.4380   -0.3510   -0.5810 C   0  0  0  0  0
   -1.6480   -0.0310   -1.4200 C   0  0  0  0  0
   -1.7830    1.1860   -1.9670 O   0  0  0  0  0
   -2.4970   -0.8720   -1.6010 O   0  0  0  0  0
   -0.7260   -0.0080    0.8810 C   0  0  0  0  0
    0.5020   -0.3320    1.7320 C   0  0  0  0  0
    0.2180    0.0050    3.1730 C   0  0  0  0  0
   -0.8560    0.4590    3.4870 O   0  0  0  0  0
    1.1590   -0.1970    4.1080 O   0  0  0  0  0
    1.5150   -0.0590   -2.0080 C   0  0  0  0  0
    2.6900    0.7500   -2.4920 C   0  0  0  0  0
    1.2990   -1.1560   -2.4780 O   0  0  0  0  0
    0.7030    0.4350   -1.0520 N   0  0  0  0  0
   -0.2070   -1.4130   -0.6670 H   0  0  0  0  0
   -2.5600    1.3910   -2.5050 H   0  0  0  0  0
   -0.9570    1.0530    0.9660 H   0  0  0  0  0
   -1.5760   -0.5930    1.2310 H   0  0  0  0  0
    0.7330   -1.3940    1.6470 H   0  0  0  0  0
    1.3520    0.2530    1.3820 H   0  0  0  0  0
    0.9770    0.0190    5.0330 H   0  0  0  0  0
    3.2250    0.1910   -3.2590 H   0  0  0  0  0
    2.3340    1.6920   -2.9100 H   0  0  0  0  0
    3.3600    0.9530   -1.6570 H   0  0  0  0  0
    0.8760    1.3120   -0.6760 H   0  0  0  0  0
  1  2  1  0  0  0
  1  5  1  0  0  0
  1 13  1  0  0  0
  1 14  1  0  0  0
  2  3  1  0  0  0
  2  4  2  0  0  0
  3 15  1  0  0  0
  5  6  1  0  0  0
  5 16  1  0  0  0
  5 17  1  0  0  0
  6  7  1  0  0  0
  6 18  1  0  0  0
  6 19  1  0  0  0
  7  8  2  0  0  0
  7  9  1  0  0  0
  9 20  1  0  0  0
 10 11  1  0  0  0
 10 12  2  0  0  0
 10 13  1  0  0  0
 11 21  1  0  0  0
 11 22  1  0  0  0
 11 23  1  0  0  0
 13 24  1  0  0  0
M  END
$$$$
