NLX
  CCTOOLS-0919241040

 49 53  0  0  1  0  0  0  0  0999 V2000
    4.3430    1.3030   -1.3040 O   0  0  0  0  0
    2.1160   -0.7280   -1.4720 O   0  0  0  0  0
    2.7270   -2.8860    0.0030 O   0  0  0  0  0
   -1.6640   -1.8950    0.5870 O   0  0  0  0  0
   -2.3730    0.8190    0.2590 N   0  3  0  0  0
    1.7580    2.5310    1.0180 C   0  0  0  0  0
    2.9240    2.4250    0.2770 C   0  0  0  0  0
    3.1780    1.3780   -0.6070 C   0  0  0  0  0
    2.1790    0.4080   -0.7450 C   0  0  0  0  0
    1.0480   -1.5690   -0.9380 C   0  0  0  0  0
    1.6390   -2.3900    0.1710 C   0  0  0  0  0
    0.9400   -2.6230    1.4760 C   0  0  0  0  0
    0.2560   -1.3370    1.9440 C   0  0  0  0  0
   -1.4300    0.4040    1.3040 C   0  0  0  0  0
   -0.5090    1.5560    1.6710 C   0  0  0  0  0
    0.7580    1.5850    0.8800 C   0  0  0  0  0
    1.0010    0.5870   -0.0350 C   0  0  0  0  0
    0.0630   -0.5330   -0.4130 C   0  0  0  0  0
   -0.7060   -0.8680    0.8540 C   0  0  0  0  0
   -0.8980   -0.0570   -1.5000 C   0  0  0  0  0
   -1.6590    1.1660   -0.9750 C   0  0  0  0  0
   -3.3060   -0.2820   -0.0160 C   0  0  0  0  0
   -4.3870    0.1960   -0.9510 C   0  0  0  0  0
   -4.6130   -0.4430   -2.0720 C   0  0  0  0  0
   -3.1300    1.9880    0.7250 C   0  0  0  0  0
    5.0430    0.8140   -0.8480 H   0  0  0  0  0
   -2.2000   -2.1420    1.3530 H   0  0  0  0  0
    1.6300    3.3540    1.7050 H   0  0  0  0  0
    3.6750    3.1940    0.3900 H   0  0  0  0  0
    0.6100   -2.2010   -1.7110 H   0  0  0  0  0
    0.1910   -3.4050    1.3510 H   0  0  0  0  0
    1.6670   -2.9380    2.2240 H   0  0  0  0  0
   -0.2980   -1.5310    2.8630 H   0  0  0  0  0
    1.0080   -0.5680    2.1240 H   0  0  0  0  0
   -2.0100    0.1460    2.1900 H   0  0  0  0  0
   -1.0420    2.4930    1.5100 H   0  0  0  0  0
   -0.2580    1.4780    2.7290 H   0  0  0  0  0
   -0.3350    0.2180   -2.3920 H   0  0  0  0  0
   -1.6040   -0.8530   -1.7390 H   0  0  0  0  0
   -2.3760    1.4970   -1.7270 H   0  0  0  0  0
   -0.9540    1.9710   -0.7700 H   0  0  0  0  0
   -2.7660   -1.1100   -0.4770 H   0  0  0  0  0
   -3.7570   -0.6180    0.9180 H   0  0  0  0  0
   -4.9750    1.0650   -0.6970 H   0  0  0  0  0
   -4.0240   -1.3130   -2.3260 H   0  0  0  0  0
   -5.3870   -0.1010   -2.7430 H   0  0  0  0  0
   -2.4580    2.8400    0.8230 H   0  0  0  0  0
   -3.9140    2.2240    0.0060 H   0  0  0  0  0
   -3.5800    1.7670    1.6940 H   0  0  0  0  0
  1  8  1  0  0  0
  1 26  1  0  0  0
  2  9  1  0  0  0
  2 10  1  0  0  0
  3 11  2  0  0  0
  4 19  1  0  0  0
  4 27  1  0  0  0
  5 14  1  0  0  0
  5 21  1  0  0  0
  5 22  1  0  0  0
  5 25  1  0  0  0
  6  7  2  0  0  0
  6 16  1  0  0  0
  6 28  1  0  0  0
  7  8  1  0  0  0
  7 29  1  0  0  0
  8  9  2  0  0  0
  9 17  1  0  0  0
 10 11  1  0  0  0
 10 18  1  0  0  0
 10 30  1  0  0  0
 11 12  1  0  0  0
 12 13  1  0  0  0
 12 31  1  0  0  0
 12 32  1  0  0  0
 13 19  1  0  0  0
 13 33  1  0  0  0
 13 34  1  0  0  0
 14 15  1  0  0  0
 14 19  1  0  0  0
 14 35  1  0  0  0
 15 16  1  0  0  0
 15 36  1  0  0  0
 15 37  1  0  0  0
 16 17  2  0  0  0
 17 18  1  0  0  0
 18 19  1  0  0  0
 18 20  1  0  0  0
 20 21  1  0  0  0
 20 38  1  0  0  0
 20 39  1  0  0  0
 21 40  1  0  0  0
 21 41  1  0  0  0
 22 23  1  0  0  0
 22 42  1  0  0  0
 22 43  1  0  0  0
 23 24  2  0  0  0
 23 44  1  0  0  0
 24 45  1  0  0  0
 24 46  1  0  0  0
 25 47  1  0  0  0
 25 48  1  0  0  0
 25 49  1  0  0  0
M  CHG  1   5   1
M  END
$$$$
