NO3
  CCTOOLS-1004241125

  4  3  0  0  0  0  0  0  0  0999 V2000
   -0.0000    0.0000   -0.0010 N   0  3  0  0  0
   -1.2180    0.0170    0.0000 O   0  0  0  0  0
    0.6230    1.0460    0.0000 O   0  5  0  0  0
    0.5950   -1.0630    0.0000 O   0  5  0  0  0
  1  2  2  0  0  0
  1  3  1  0  0  0
  1  4  1  0  0  0
M  CHG  1   1   1
M  CHG  1   3  -1
M  CHG  1   4  -1
M  END
$$$$
