NOG
  CCTOOLS-0919241040

 51 54  0  0  1  0  0  0  0  0999 V2000
    1.6280    0.0500    2.8770 C   0  0  0  0  0
    1.5780   -0.2430    4.3760 C   0  0  0  0  0
    0.3020    0.3710    4.9170 C   0  0  0  0  0
   -0.9310    0.0600    4.1880 C   0  0  0  0  0
   -0.8720   -0.3380    2.9180 C   0  0  0  0  0
   -2.1790   -0.6620    2.2190 C   0  0  0  0  0
   -2.2070    0.0640    0.8730 C   0  0  0  0  0
   -0.9650   -0.3230    0.0670 C   0  0  0  0  0
    0.2850    0.1980    0.7890 C   0  0  0  0  0
    0.3930   -0.4920    2.1550 C   0  0  0  0  0
    1.5560   -0.0720   -0.0090 C   0  0  0  0  0
    1.4590    0.4850   -1.4380 C   0  0  0  0  0
    0.2450   -0.1510   -2.0840 C   0  0  0  0  0
   -1.0020    0.3460   -1.3070 C   0  0  0  0  0
   -2.1500   -0.0910   -2.2250 C   0  0  0  0  0
   -1.6090    0.2430   -3.6420 C   0  0  0  0  0
   -0.0530    0.2510   -3.5240 C   0  0  0  0  0
    0.3440   -1.6740   -1.9830 C   0  0  0  0  0
    1.6830   -2.1380   -2.5610 C   0  0  0  0  0
    0.4710    1.6010   -3.7840 C   0  0  0  0  0
    0.8900    2.6780   -3.9920 C   0  0  0  0  0
    0.3020    1.0810    5.9000 O   0  0  0  0  0
    0.5170   -0.6870   -4.4380 O   0  0  0  0  0
    1.6800    1.1280    2.7280 H   0  0  0  0  0
    2.5220   -0.4080    2.4550 H   0  0  0  0  0
    2.4420    0.2010    4.8690 H   0  0  0  0  0
    1.5700   -1.3200    4.5420 H   0  0  0  0  0
   -1.8880    0.1550    4.6800 H   0  0  0  0  0
   -3.0150   -0.3280    2.8330 H   0  0  0  0  0
   -2.2500   -1.7380    2.0550 H   0  0  0  0  0
   -2.2110    1.1410    1.0410 H   0  0  0  0  0
   -3.1030   -0.2220    0.3220 H   0  0  0  0  0
   -0.9110   -1.4070   -0.0320 H   0  0  0  0  0
    0.1840    1.2720    0.9420 H   0  0  0  0  0
    0.5430   -1.5580    1.9830 H   0  0  0  0  0
    1.7220   -1.1480   -0.0580 H   0  0  0  0  0
    2.4010    0.3930    0.4980 H   0  0  0  0  0
    2.3570    0.2270   -1.9990 H   0  0  0  0  0
    1.3380    1.5680   -1.4060 H   0  0  0  0  0
   -0.9910    1.4300   -1.2020 H   0  0  0  0  0
   -2.3360   -1.1600   -2.1270 H   0  0  0  0  0
   -3.0530    0.4800   -2.0120 H   0  0  0  0  0
   -1.9270   -0.5180   -4.3540 H   0  0  0  0  0
   -1.9680    1.2230   -3.9580 H   0  0  0  0  0
   -0.4700   -2.1300   -2.5450 H   0  0  0  0  0
    0.2770   -1.9740   -0.9370 H   0  0  0  0  0
    1.8070   -3.2050   -2.3790 H   0  0  0  0  0
    1.7010   -1.9470   -3.6340 H   0  0  0  0  0
    2.4950   -1.5910   -2.0810 H   0  0  0  0  0
    1.2650    3.6410   -4.1780 H   0  0  0  0  0
    0.2640   -0.4010   -5.3260 H   0  0  0  0  0
  1  2  1  0  0  0
  1 10  1  0  0  0
  1 24  1  0  0  0
  1 25  1  0  0  0
  2  3  1  0  0  0
  2 26  1  0  0  0
  2 27  1  0  0  0
  3  4  1  0  0  0
  3 22  2  0  0  0
  4  5  2  0  0  0
  4 28  1  0  0  0
  5  6  1  0  0  0
  5 10  1  0  0  0
  6  7  1  0  0  0
  6 29  1  0  0  0
  6 30  1  0  0  0
  7  8  1  0  0  0
  7 31  1  0  0  0
  7 32  1  0  0  0
  8  9  1  0  0  0
  8 14  1  0  0  0
  8 33  1  0  0  0
  9 10  1  0  0  0
  9 11  1  0  0  0
  9 34  1  0  0  0
 10 35  1  0  0  0
 11 12  1  0  0  0
 11 36  1  0  0  0
 11 37  1  0  0  0
 12 13  1  0  0  0
 12 38  1  0  0  0
 12 39  1  0  0  0
 13 14  1  0  0  0
 13 17  1  0  0  0
 13 18  1  0  0  0
 14 15  1  0  0  0
 14 40  1  0  0  0
 15 16  1  0  0  0
 15 41  1  0  0  0
 15 42  1  0  0  0
 16 17  1  0  0  0
 16 43  1  0  0  0
 16 44  1  0  0  0
 17 20  1  0  0  0
 17 23  1  0  0  0
 18 19  1  0  0  0
 18 45  1  0  0  0
 18 46  1  0  0  0
 19 47  1  0  0  0
 19 48  1  0  0  0
 19 49  1  0  0  0
 20 21  3  0  0  0
 21 50  1  0  0  0
 23 51  1  0  0  0
M  END
$$$$
