NPJ
  CCTOOLS-0919241041

 57 59  0  0  1  0  0  0  0  0999 V2000
   -3.3420   -0.8590    0.0650 C   0  0  0  0  0
   -4.3740   -0.8080   -1.0640 C   0  0  0  0  0
   -4.4620    0.6270   -1.5960 C   0  0  0  0  0
   -4.7350    1.5700   -0.4180 C   0  0  0  0  0
   -3.6740    1.3400    0.6610 C   0  0  0  0  0
   -3.9170    2.3020    1.8260 C   0  0  0  0  0
   -2.0740   -0.4260   -0.4330 O   0  0  0  0  0
   -3.9750   -1.6870   -2.1170 O   0  0  0  0  0
   -5.5250    0.7220   -2.5460 O   0  0  0  0  0
   -4.6740    2.9250   -0.8670 O   0  0  0  0  0
   -3.7490   -0.0040    1.1320 O   0  0  0  0  0
   -2.8600    2.1720    2.7790 O   0  0  0  0  0
    1.5920   -1.6240    1.0120 C   0  0  0  0  0
    0.4720   -2.6530    1.1860 C   0  0  0  0  0
   -0.6910   -2.2880    0.2560 C   0  0  0  0  0
   -1.0940   -0.8330    0.5230 C   0  0  0  0  0
    0.1430    0.0590    0.4010 C   0  0  0  0  0
   -0.2550    1.5180    0.6350 C   0  0  0  0  0
    2.0190   -1.6130   -0.3520 O   0  0  0  0  0
    0.9600   -3.9540    0.8530 O   0  0  0  0  0
   -1.8020   -3.1480    0.5130 O   0  0  0  0  0
    1.1160   -0.3280    1.3690 O   0  0  0  0  0
    0.8770    2.3620    0.4150 O   0  0  0  0  0
    5.4790    0.6280   -0.5000 C   0  0  0  0  0
    4.8400    0.4240    0.7090 C   0  0  0  0  0
    3.6810   -0.3260    0.7610 C   0  0  0  0  0
    3.1580   -0.8750   -0.4010 C   0  0  0  0  0
    3.8040   -0.6730   -1.6120 C   0  0  0  0  0
    4.9600    0.0820   -1.6600 C   0  0  0  0  0
    6.7200    1.4330   -0.5530 N   0  3  0  0  0
    7.1780    1.9140    0.4670 O   0  5  0  0  0
    7.2840    1.6130   -1.6180 O   0  0  0  0  0
   -3.2570   -1.8810    0.4320 H   0  0  0  0  0
   -5.3480   -1.1150   -0.6810 H   0  0  0  0  0
   -3.5200    0.8990   -2.0720 H   0  0  0  0  0
   -5.7240    1.3650   -0.0090 H   0  0  0  0  0
   -2.6850    1.5220    0.2410 H   0  0  0  0  0
   -4.8670    2.0620    2.3020 H   0  0  0  0  0
   -3.9460    3.3250    1.4520 H   0  0  0  0  0
   -3.9270   -2.5740   -1.7370 H   0  0  0  0  0
   -5.3170    0.1040   -3.2610 H   0  0  0  0  0
   -5.3520    3.0240   -1.5490 H   0  0  0  0  0
   -3.0510    2.7930    3.4940 H   0  0  0  0  0
    2.4320   -1.8910    1.6520 H   0  0  0  0  0
    0.1280   -2.6460    2.2200 H   0  0  0  0  0
   -0.3770   -2.3960   -0.7820 H   0  0  0  0  0
   -1.5070   -0.7480    1.5280 H   0  0  0  0  0
    0.5650   -0.0450   -0.5990 H   0  0  0  0  0
   -1.0520    1.7920   -0.0550 H   0  0  0  0  0
   -0.6040    1.6390    1.6610 H   0  0  0  0  0
    1.6890   -4.1440    1.4600 H   0  0  0  0  0
   -1.5050   -4.0510    0.3330 H   0  0  0  0  0
    0.5840    3.2700    0.5730 H   0  0  0  0  0
    5.2480    0.8510    1.6130 H   0  0  0  0  0
    3.1820   -0.4850    1.7060 H   0  0  0  0  0
    3.3990   -1.0990   -2.5180 H   0  0  0  0  0
    5.4610    0.2440   -2.6030 H   0  0  0  0  0
  1  2  1  0  0  0
  1  7  1  0  0  0
  1 11  1  0  0  0
  1 33  1  0  0  0
  2  3  1  0  0  0
  2  8  1  0  0  0
  2 34  1  0  0  0
  3  4  1  0  0  0
  3  9  1  0  0  0
  3 35  1  0  0  0
  4  5  1  0  0  0
  4 10  1  0  0  0
  4 36  1  0  0  0
  5  6  1  0  0  0
  5 11  1  0  0  0
  5 37  1  0  0  0
  6 12  1  0  0  0
  6 38  1  0  0  0
  6 39  1  0  0  0
  7 16  1  0  0  0
  8 40  1  0  0  0
  9 41  1  0  0  0
 10 42  1  0  0  0
 12 43  1  0  0  0
 13 14  1  0  0  0
 13 19  1  0  0  0
 13 22  1  0  0  0
 13 44  1  0  0  0
 14 15  1  0  0  0
 14 20  1  0  0  0
 14 45  1  0  0  0
 15 16  1  0  0  0
 15 21  1  0  0  0
 15 46  1  0  0  0
 16 17  1  0  0  0
 16 47  1  0  0  0
 17 18  1  0  0  0
 17 22  1  0  0  0
 17 48  1  0  0  0
 18 23  1  0  0  0
 18 49  1  0  0  0
 18 50  1  0  0  0
 19 27  1  0  0  0
 20 51  1  0  0  0
 21 52  1  0  0  0
 23 53  1  0  0  0
 24 25  2  0  0  0
 24 29  1  0  0  0
 24 30  1  0  0  0
 25 26  1  0  0  0
 25 54  1  0  0  0
 26 27  2  0  0  0
 26 55  1  0  0  0
 27 28  1  0  0  0
 28 29  2  0  0  0
 28 56  1  0  0  0
 29 57  1  0  0  0
 30 31  1  0  0  0
 30 32  2  0  0  0
M  CHG  1  30   1
M  CHG  1  31  -1
M  END
$$$$
