NPM
  CCTOOLS-0919241041

 49 52  0  0  0  0  0  0  0  0999 V2000
   -6.8400   -1.8430    0.6800 N   0  0  0  0  0
   -4.5880   -0.2210    0.4420 N   0  0  0  0  0
    4.5880   -0.2220   -0.4420 N   0  0  0  0  0
    6.8380   -1.8460   -0.6750 N   0  0  0  0  0
   -7.8890   -2.6260    0.8120 C   0  0  0  0  0
   -9.0500   -2.3870    0.0960 C   0  0  0  0  0
   -9.1050   -1.3070   -0.7710 C   0  0  0  0  0
   -7.9880   -0.4980   -0.8920 C   0  0  0  0  0
   -6.8500   -0.7970   -0.1400 C   0  0  0  0  0
   -5.6520    0.0540   -0.2570 C   0  0  0  0  0
   -3.4760    0.5680    0.3340 C   0  0  0  0  0
   -2.7900    0.9750    1.4810 C   0  0  0  0  0
   -1.6690    1.7700    1.3640 C   0  0  0  0  0
   -1.2250    2.1660    0.1150 C   0  0  0  0  0
   -1.9000    1.7670   -1.0250 C   0  0  0  0  0
   -3.0180    0.9670   -0.9240 C   0  0  0  0  0
   -0.0000    3.0370   -0.0040 C   0  0  0  0  0
    1.2250    2.1670   -0.1210 C   0  0  0  0  0
    1.6690    1.7680   -1.3690 C   0  0  0  0  0
    2.7900    0.9710   -1.4830 C   0  0  0  0  0
    3.4760    0.5680   -0.3360 C   0  0  0  0  0
    3.0210    0.9750    0.9210 C   0  0  0  0  0
    1.9030    1.7760    1.0200 C   0  0  0  0  0
    5.6520    0.0540    0.2570 C   0  0  0  0  0
    6.8500   -0.7970    0.1420 C   0  0  0  0  0
    7.9870   -0.4970    0.8930 C   0  0  0  0  0
    9.1040   -1.3060    0.7750 C   0  0  0  0  0
    9.0490   -2.3890   -0.0900 C   0  0  0  0  0
    7.8870   -2.6290   -0.8050 C   0  0  0  0  0
   -7.8430   -3.4670    1.4890 H   0  0  0  0  0
   -9.9050   -3.0370    0.2120 H   0  0  0  0  0
  -10.0000   -1.1010   -1.3400 H   0  0  0  0  0
   -7.9960    0.3520   -1.5590 H   0  0  0  0  0
   -5.6560    0.9040   -0.9220 H   0  0  0  0  0
   -3.1360    0.6670    2.4570 H   0  0  0  0  0
   -1.1380    2.0850    2.2500 H   0  0  0  0  0
   -1.5470    2.0800   -1.9970 H   0  0  0  0  0
   -3.5410    0.6520   -1.8150 H   0  0  0  0  0
   -0.0860    3.6650   -0.8910 H   0  0  0  0  0
    0.0850    3.6670    0.8810 H   0  0  0  0  0
    1.1380    2.0800   -2.2560 H   0  0  0  0  0
    3.1360    0.6600   -2.4580 H   0  0  0  0  0
    3.5470    0.6660    1.8130 H   0  0  0  0  0
    1.5530    2.0940    1.9910 H   0  0  0  0  0
    5.6560    0.9070    0.9190 H   0  0  0  0  0
    7.9960    0.3550    1.5570 H   0  0  0  0  0
    9.9990   -1.0990    1.3430 H   0  0  0  0  0
    9.9030   -3.0390   -0.2050 H   0  0  0  0  0
    7.8410   -3.4720   -1.4790 H   0  0  0  0  0
  1  5  2  0  0  0
  1  9  1  0  0  0
  2 10  2  0  0  0
  2 11  1  0  0  0
  3 21  1  0  0  0
  3 24  2  0  0  0
  4 25  1  0  0  0
  4 29  2  0  0  0
  5  6  1  0  0  0
  5 30  1  0  0  0
  6  7  2  0  0  0
  6 31  1  0  0  0
  7  8  1  0  0  0
  7 32  1  0  0  0
  8  9  2  0  0  0
  8 33  1  0  0  0
  9 10  1  0  0  0
 10 34  1  0  0  0
 11 12  1  0  0  0
 11 16  2  0  0  0
 12 13  2  0  0  0
 12 35  1  0  0  0
 13 14  1  0  0  0
 13 36  1  0  0  0
 14 15  2  0  0  0
 14 17  1  0  0  0
 15 16  1  0  0  0
 15 37  1  0  0  0
 16 38  1  0  0  0
 17 18  1  0  0  0
 17 39  1  0  0  0
 17 40  1  0  0  0
 18 19  2  0  0  0
 18 23  1  0  0  0
 19 20  1  0  0  0
 19 41  1  0  0  0
 20 21  2  0  0  0
 20 42  1  0  0  0
 21 22  1  0  0  0
 22 23  2  0  0  0
 22 43  1  0  0  0
 23 44  1  0  0  0
 24 25  1  0  0  0
 24 45  1  0  0  0
 25 26  2  0  0  0
 26 27  1  0  0  0
 26 46  1  0  0  0
 27 28  2  0  0  0
 27 47  1  0  0  0
 28 29  1  0  0  0
 28 48  1  0  0  0
 29 49  1  0  0  0
M  END
$$$$
