NPO
  CCTOOLS-0919241041

 15 15  0  0  0  0  0  0  0  0999 V2000
    0.0120   -0.0020   -0.6550 C   0  0  0  0  0
    1.2240   -0.0070    0.0620 C   0  0  0  0  0
    1.2050   -0.0140    1.4250 C   0  0  0  0  0
   -0.0090   -0.0170    2.1090 C   0  0  0  0  0
   -1.2120   -0.0180    1.4060 C   0  0  0  0  0
   -1.2100   -0.0050    0.0420 C   0  0  0  0  0
   -0.0190   -0.0250    3.4640 O   0  0  0  0  0
    0.0230    0.0050   -1.9950 N   0  3  0  0  0
   -1.0260    0.0090   -2.6120 O   0  5  0  0  0
    1.0830    0.0080   -2.5960 O   0  0  0  0  0
    2.1660   -0.0040   -0.4660 H   0  0  0  0  0
    2.1330   -0.0180    1.9770 H   0  0  0  0  0
   -2.1490   -0.0200    1.9430 H   0  0  0  0  0
   -2.1430   -0.0010   -0.5000 H   0  0  0  0  0
   -0.0210    0.8980    3.7480 H   0  0  0  0  0
  1  2  2  0  0  0
  1  6  1  0  0  0
  1  8  1  0  0  0
  2  3  1  0  0  0
  2 11  1  0  0  0
  3  4  2  0  0  0
  3 12  1  0  0  0
  4  5  1  0  0  0
  4  7  1  0  0  0
  5  6  2  0  0  0
  5 13  1  0  0  0
  6 14  1  0  0  0
  7 15  1  0  0  0
  8  9  1  0  0  0
  8 10  2  0  0  0
M  CHG  1   8   1
M  CHG  1   9  -1
M  END
$$$$
