NRQ
  CCTOOLS-1004241125

 41 42  0  0  0  0  0  0  0  0999 V2000
   -0.9100    2.1550    0.0640 N   0  0  0  0  0
   -6.1070    3.2780    0.1000 C   0  0  0  0  0
   -5.3590    1.6820   -0.3270 S   0  0  0  0  0
   -3.5870    1.9840   -0.0870 C   0  0  0  0  0
   -2.8040    0.7110   -0.4120 C   0  0  0  0  0
   -1.3310    0.9620   -0.2120 C   0  0  0  0  0
   -0.3720   -0.1480   -0.3320 C   0  0  0  0  0
    0.9270   -0.0140   -0.2930 N   0  0  0  0  0
    6.5390    2.5910    0.5500 O   0  0  0  0  0
    3.3790    0.8640    0.1420 C   0  0  0  0  0
    4.2820    1.8590    0.3840 C   0  0  0  0  0
    5.6470    1.5970    0.3100 C   0  0  0  0  0
    6.1010    0.3210   -0.0100 C   0  0  0  0  0
    5.2080   -0.6830   -0.2530 C   0  0  0  0  0
    3.8300   -0.4260   -0.1810 C   0  0  0  0  0
    2.8680   -1.4960   -0.4400 C   0  0  0  0  0
    1.5120   -1.2250   -0.4310 C   0  0  0  0  0
    0.4130   -2.1980   -0.5690 C   0  0  0  0  0
    0.5100   -3.4030   -0.7150 O   0  0  0  0  0
   -0.7230   -1.4710   -0.4940 N   0  0  0  0  0
   -2.0890   -1.9950   -0.5800 C   0  0  0  0  0
   -2.6020   -2.2880    0.8060 C   0  0  0  0  0
   -1.9000   -2.0790    1.7670 O   0  0  0  0  0
   -3.8400   -2.7790    0.9740 O   0  0  0  0  0
    0.0270    2.3030    0.2660 H   0  0  0  0  0
   -5.8610    3.5310    1.1310 H   0  0  0  0  0
   -5.7200    4.0500   -0.5660 H   0  0  0  0  0
   -7.1900    3.2130   -0.0100 H   0  0  0  0  0
   -3.2630    2.7890   -0.7480 H   0  0  0  0  0
   -3.4040    2.2690    0.9490 H   0  0  0  0  0
   -3.1280   -0.0930    0.2490 H   0  0  0  0  0
   -2.9870    0.4260   -1.4480 H   0  0  0  0  0
    6.8040    2.6660    1.4780 H   0  0  0  0  0
    2.3200    1.0670    0.2040 H   0  0  0  0  0
    3.9370    2.8510    0.6330 H   0  0  0  0  0
    7.1610    0.1250   -0.0660 H   0  0  0  0  0
    5.5610   -1.6730   -0.5020 H   0  0  0  0  0
    3.2170   -2.4990   -0.6390 H   0  0  0  0  0
   -2.7320   -1.2560   -1.0580 H   0  0  0  0  0
   -2.0890   -2.9120   -1.1690 H   0  0  0  0  0
   -4.1250   -2.9510    1.8810 H   0  0  0  0  0
  1 25  1  0  0  0
  2  3  1  0  0  0
  2 26  1  0  0  0
  2 27  1  0  0  0
  2 28  1  0  0  0
  3  4  1  0  0  0
  4  5  1  0  0  0
  4 29  1  0  0  0
  4 30  1  0  0  0
  5 31  1  0  0  0
  5 32  1  0  0  0
  6  5  1  0  0  0
  6  1  2  0  0  0
  7  6  1  0  0  0
  8  7  2  0  0  0
  9 33  1  0  0  0
 10 15  2  0  0  0
 10 11  1  0  0  0
 10 34  1  0  0  0
 11 12  2  0  0  0
 11 35  1  0  0  0
 12  9  1  0  0  0
 12 13  1  0  0  0
 13 36  1  0  0  0
 14 13  2  0  0  0
 14 37  1  0  0  0
 15 14  1  0  0  0
 16 15  1  0  0  0
 16 38  1  0  0  0
 17 16  2  0  0  0
 17  8  1  0  0  0
 18 17  1  0  0  0
 18 20  1  0  0  0
 19 18  2  0  0  0
 20  7  1  0  0  0
 20 21  1  0  0  0
 21 39  1  0  0  0
 21 40  1  0  0  0
 22 23  2  0  0  0
 22 21  1  0  0  0
 24 22  1  0  0  0
 24 41  1  0  0  0
M  END
$$$$
