NSI
  CCTOOLS-0919241041

 63 67  0  0  0  0  0  0  0  0999 V2000
    1.2990   -3.6090    0.7080 O   0  0  0  0  0
    2.2060   -2.7590    1.3960 S   0  0  0  0  0
    2.8210   -3.0510    2.6430 O   0  0  0  0  0
    3.5270   -2.4560    0.2700 C   0  0  0  0  0
    4.7660   -2.0720    0.7460 C   0  0  0  0  0
    5.8030   -1.8340   -0.1370 C   0  0  0  0  0
    5.5990   -1.9800   -1.4960 C   0  0  0  0  0
    4.3600   -2.3650   -1.9730 C   0  0  0  0  0
    3.3250   -2.6070   -1.0890 C   0  0  0  0  0
    1.4030   -1.3280    1.6150 N   0  0  0  0  0
    0.7510   -0.7560    0.5830 C   0  0  0  0  0
    0.8200   -1.2490   -0.5280 O   0  0  0  0  0
   -0.0410    0.4590    0.7980 C   0  0  0  0  0
   -1.3300    0.4990    1.2900 N   0  0  0  0  0
   -2.1190   -0.6750    1.6730 C   0  0  0  0  0
   -2.9190   -1.1520    0.4880 C   0  0  0  0  0
   -2.4090   -2.1350   -0.3390 C   0  0  0  0  0
   -3.1420   -2.5730   -1.4260 C   0  0  0  0  0
   -4.1640   -0.6100    0.2310 C   0  0  0  0  0
   -4.8950   -1.0440   -0.8590 C   0  0  0  0  0
   -6.2500   -0.4490   -1.1430 C   0  0  0  0  0
   -6.7920   -1.0470   -2.2860 F   0  0  0  0  0
   -7.0970   -0.6750   -0.0520 F   0  0  0  0  0
   -6.1200    0.9280   -1.3540 F   0  0  0  0  0
   -4.3850   -2.0270   -1.6860 C   0  0  0  0  0
   -1.7680    1.8000    1.3630 C   0  0  0  0  0
   -2.9690    2.3730    1.7760 C   0  0  0  0  0
   -3.1250    3.7410    1.7360 C   0  0  0  0  0
   -2.0960    4.5580    1.2870 C   0  0  0  0  0
   -0.9100    4.0190    0.8770 C   0  0  0  0  0
    0.3860    1.7510    0.5490 C   0  0  0  0  0
   -0.7300    2.6340    0.9090 C   0  0  0  0  0
    1.7050    2.1600    0.0190 C   0  0  0  0  0
    2.5720    2.9170    0.8090 C   0  0  0  0  0
    3.8000    3.2970    0.3120 C   0  0  0  0  0
    2.0850    1.7910   -1.2720 C   0  0  0  0  0
    3.3130    2.1790   -1.7640 C   0  0  0  0  0
    4.1750    2.9270   -0.9730 C   0  0  0  0  0
    5.3860    3.3030   -1.4600 O   0  0  0  0  0
    5.4790    2.7800   -2.7860 C   0  0  0  0  0
    4.9250   -1.9580    1.8090 H   0  0  0  0  0
    6.7710   -1.5340    0.2350 H   0  0  0  0  0
    6.4090   -1.7930   -2.1870 H   0  0  0  0  0
    4.2010   -2.4780   -3.0350 H   0  0  0  0  0
    2.3560   -2.9070   -1.4610 H   0  0  0  0  0
    1.4020   -0.9000    2.4860 H   0  0  0  0  0
   -1.4510   -1.4700    2.0040 H   0  0  0  0  0
   -2.7960   -0.4080    2.4850 H   0  0  0  0  0
   -1.4370   -2.5620   -0.1360 H   0  0  0  0  0
   -2.7430   -3.3400   -2.0730 H   0  0  0  0  0
   -4.5620    0.1580    0.8770 H   0  0  0  0  0
   -4.9580   -2.3680   -2.5360 H   0  0  0  0  0
   -3.7750    1.7470    2.1270 H   0  0  0  0  0
   -4.0570    4.1820    2.0580 H   0  0  0  0  0
   -2.2350    5.6290    1.2620 H   0  0  0  0  0
   -0.1150    4.6610    0.5290 H   0  0  0  0  0
    2.2810    3.2050    1.8090 H   0  0  0  0  0
    4.4710    3.8830    0.9220 H   0  0  0  0  0
    1.4170    1.2060   -1.8860 H   0  0  0  0  0
    3.6080    1.8930   -2.7630 H   0  0  0  0  0
    6.4400    3.0570   -3.2200 H   0  0  0  0  0
    5.3950    1.6930   -2.7550 H   0  0  0  0  0
    4.6730    3.1890   -3.3960 H   0  0  0  0  0
  1  2  2  0  0  0
  2  3  2  0  0  0
  2  4  1  0  0  0
  2 10  1  0  0  0
  4  5  2  0  0  0
  4  9  1  0  0  0
  5  6  1  0  0  0
  5 41  1  0  0  0
  6  7  2  0  0  0
  6 42  1  0  0  0
  7  8  1  0  0  0
  7 43  1  0  0  0
  8  9  2  0  0  0
  8 44  1  0  0  0
  9 45  1  0  0  0
 10 11  1  0  0  0
 10 46  1  0  0  0
 11 12  2  0  0  0
 11 13  1  0  0  0
 13 14  1  0  0  0
 13 31  2  0  0  0
 14 15  1  0  0  0
 14 26  1  0  0  0
 15 16  1  0  0  0
 15 47  1  0  0  0
 15 48  1  0  0  0
 16 17  1  0  0  0
 16 19  2  0  0  0
 17 18  2  0  0  0
 17 49  1  0  0  0
 18 25  1  0  0  0
 18 50  1  0  0  0
 19 20  1  0  0  0
 19 51  1  0  0  0
 20 21  1  0  0  0
 20 25  2  0  0  0
 21 22  1  0  0  0
 21 23  1  0  0  0
 21 24  1  0  0  0
 25 52  1  0  0  0
 26 27  2  0  0  0
 26 32  1  0  0  0
 27 28  1  0  0  0
 27 53  1  0  0  0
 28 29  2  0  0  0
 28 54  1  0  0  0
 29 30  1  0  0  0
 29 55  1  0  0  0
 30 32  2  0  0  0
 30 56  1  0  0  0
 31 32  1  0  0  0
 31 33  1  0  0  0
 33 34  2  0  0  0
 33 36  1  0  0  0
 34 35  1  0  0  0
 34 57  1  0  0  0
 35 38  2  0  0  0
 35 58  1  0  0  0
 36 37  2  0  0  0
 36 59  1  0  0  0
 37 38  1  0  0  0
 37 60  1  0  0  0
 38 39  1  0  0  0
 39 40  1  0  0  0
 40 61  1  0  0  0
 40 62  1  0  0  0
 40 63  1  0  0  0
M  END
$$$$
