NVA
  CCTOOLS-1004241125

 19 18  0  0  1  0  0  0  0  0999 V2000
   -1.7410    0.3510   -0.1400 N   0  0  0  0  0
   -0.2860    0.5210   -0.2570 C   0  0  0  0  0
    0.4060   -0.2250    0.8840 C   0  0  0  0  0
   -0.0670    0.3390    2.2250 C   0  0  0  0  0
    0.6260   -0.4060    3.3660 C   0  0  0  0  0
    0.1790   -0.0350   -1.5770 C   0  0  0  0  0
   -0.4130   -0.9550   -2.0880 O   0  0  0  0  0
    1.2540    0.4900   -2.1850 O   0  0  0  0  0
   -1.9930    0.6400    0.7930 H   0  0  0  0  0
   -1.9230   -0.6390   -0.1960 H   0  0  0  0  0
   -0.0380    1.5810   -0.2010 H   0  0  0  0  0
    1.4850   -0.0990    0.7980 H   0  0  0  0  0
    0.1580   -1.2850    0.8290 H   0  0  0  0  0
   -1.1460    0.2140    2.3110 H   0  0  0  0  0
    0.1800    1.3990    2.2800 H   0  0  0  0  0
    0.2880   -0.0040    4.3210 H   0  0  0  0  0
    0.3780   -1.4660    3.3110 H   0  0  0  0  0
    1.7050   -0.2810    3.2800 H   0  0  0  0  0
    1.5530    0.1330   -3.0330 H   0  0  0  0  0
  1  2  1  0  0  0
  1  9  1  0  0  0
  1 10  1  0  0  0
  2  3  1  0  0  0
  2  6  1  0  0  0
  2 11  1  0  0  0
  3  4  1  0  0  0
  3 12  1  0  0  0
  3 13  1  0  0  0
  4  5  1  0  0  0
  4 14  1  0  0  0
  4 15  1  0  0  0
  5 16  1  0  0  0
  5 17  1  0  0  0
  5 18  1  0  0  0
  6  7  2  0  0  0
  6  8  1  0  0  0
  8 19  1  0  0  0
M  END
$$$$
