NX1
  CCTOOLS-0919241042

 26 27  0  0  0  0  0  0  0  0999 V2000
   -3.3080   -0.2440    0.4050 C   0  0  0  0  0
   -4.4450    0.2220   -0.2170 C   0  0  0  0  0
   -1.7120   -0.2240   -0.3420 S   0  0  0  0  0
   -3.5490   -0.7240    1.6790 C   0  0  0  0  0
   -5.8130    0.0270    0.8700 S   0  0  0  0  0
   -4.5030    0.7690   -1.5170 C   0  0  0  0  0
   -0.6530   -0.9500    0.9390 C   0  0  0  0  0
   -4.8210   -0.6540    2.0790 C   0  0  0  0  0
   -5.6820    1.1940   -2.0190 O   0  0  0  0  0
   -3.4890    0.8580   -2.1860 O   0  0  0  0  0
    0.7700   -1.0030    0.4440 C   0  0  0  0  0
    1.6200    0.0620    0.6710 C   0  0  0  0  0
    1.2250   -2.1200   -0.2320 C   0  0  0  0  0
    2.9260    0.0140    0.2170 C   0  0  0  0  0
    2.5300   -2.1700   -0.6860 C   0  0  0  0  0
    3.3800   -1.1020   -0.4640 C   0  0  0  0  0
    4.0890    1.4720    0.5270 BR  0  0  0  0  0
    5.0190   -1.1640   -1.0340 CL  0  0  0  0  0
   -2.7660   -1.1270    2.3040 H   0  0  0  0  0
   -0.7010   -0.3390    1.8400 H   0  0  0  0  0
   -0.9970   -1.9600    1.1650 H   0  0  0  0  0
   -5.1750   -0.9860    3.0430 H   0  0  0  0  0
   -5.6220    1.5520   -2.9150 H   0  0  0  0  0
    1.2650    0.9330    1.2020 H   0  0  0  0  0
    0.5610   -2.9540   -0.4060 H   0  0  0  0  0
    2.8850   -3.0430   -1.2140 H   0  0  0  0  0
  1  2  2  0  0  0
  1  4  1  0  0  0
  2  5  1  0  0  0
  3  1  1  0  0  0
  3  7  1  0  0  0
  4  8  2  0  0  0
  4 19  1  0  0  0
  5  8  1  0  0  0
  6  2  1  0  0  0
  6  9  1  0  0  0
  7 20  1  0  0  0
  7 21  1  0  0  0
  8 22  1  0  0  0
  9 23  1  0  0  0
 10  6  2  0  0  0
 11  7  1  0  0  0
 12 11  1  0  0  0
 12 24  1  0  0  0
 13 11  2  0  0  0
 13 25  1  0  0  0
 14 12  2  0  0  0
 15 13  1  0  0  0
 15 26  1  0  0  0
 16 14  1  0  0  0
 16 15  2  0  0  0
 17 14  1  0  0  0
 18 16  1  0  0  0
M  END
$$$$
