NX2
  CCTOOLS-0919241042

 33 34  0  0  0  0  0  0  0  0999 V2000
   -1.3450    1.6760    0.0430 C   0  0  0  0  0
   -1.2380    3.0540   -0.0070 C   0  0  0  0  0
   -2.3950    3.7080   -0.1320 C   0  0  0  0  0
   -3.7120    2.6260   -0.1950 S   0  0  0  0  0
   -2.6450    1.2360   -0.0470 C   0  0  0  0  0
    0.0390    0.5970    0.1970 S   0  0  0  0  0
    1.4440    1.7430    0.2680 C   0  0  0  0  0
    2.7250    0.9600    0.4030 C   0  0  0  0  0
    3.4090    0.5550   -0.7280 C   0  0  0  0  0
    4.3920   -0.0660    1.7820 C   0  0  0  0  0
    3.2170    0.6510    1.6570 C   0  0  0  0  0
    4.5850   -0.1630   -0.6050 C   0  0  0  0  0
    5.0750   -0.4770    0.6520 C   0  0  0  0  0
    6.5510   -1.3770    0.8080 CL  0  0  0  0  0
    5.4440   -0.6720   -2.0240 CL  0  0  0  0  0
   -3.0580   -0.1160   -0.0240 C   0  0  0  0  0
   -4.3670   -0.4230   -0.1200 N   0  0  0  0  0
   -2.2310   -1.0040    0.0820 O   0  0  0  0  0
   -4.8500   -2.0070   -0.0940 S   0  0  0  0  0
   -4.4060   -2.5880    1.5660 C   0  0  0  0  0
   -6.2620   -1.9450   -0.2400 O   0  0  0  0  0
   -4.0390   -2.6370   -1.0760 O   0  0  0  0  0
   -0.2870    3.5640    0.0500 H   0  0  0  0  0
   -2.4850    4.7830   -0.1850 H   0  0  0  0  0
    1.4750    2.3360   -0.6460 H   0  0  0  0  0
    1.3300    2.4040    1.1270 H   0  0  0  0  0
    3.0260    0.8000   -1.7080 H   0  0  0  0  0
    4.7760   -0.3070    2.7620 H   0  0  0  0  0
    2.6840    0.9720    2.5400 H   0  0  0  0  0
   -5.0260    0.2830   -0.2050 H   0  0  0  0  0
   -4.9300   -1.9900    2.3120 H   0  0  0  0  0
   -4.6920   -3.6340    1.6740 H   0  0  0  0  0
   -3.3310   -2.4880    1.7110 H   0  0  0  0  0
  1  5  2  0  0  0
  1  2  1  0  0  0
  2  3  2  0  0  0
  2 23  1  0  0  0
  3 24  1  0  0  0
  4  3  1  0  0  0
  5  4  1  0  0  0
  6  1  1  0  0  0
  6  7  1  0  0  0
  7 25  1  0  0  0
  7 26  1  0  0  0
  8  7  1  0  0  0
  9  8  1  0  0  0
  9 27  1  0  0  0
 10 11  1  0  0  0
 10 28  1  0  0  0
 11  8  2  0  0  0
 11 29  1  0  0  0
 12  9  2  0  0  0
 13 10  2  0  0  0
 13 12  1  0  0  0
 14 13  1  0  0  0
 15 12  1  0  0  0
 16  5  1  0  0  0
 16 17  1  0  0  0
 17 30  1  0  0  0
 18 16  2  0  0  0
 19 17  1  0  0  0
 19 22  2  0  0  0
 20 19  1  0  0  0
 20 31  1  0  0  0
 20 32  1  0  0  0
 20 33  1  0  0  0
 21 19  2  0  0  0
M  END
$$$$
