NX3
  CCTOOLS-0919241042

 42 44  0  0  0  0  0  0  0  0999 V2000
    2.4510   -3.5870    1.0260 S   0  0  0  0  0
    1.6030   -2.2330    0.2910 C   0  0  0  0  0
    0.2520   -2.3800    0.5050 C   0  0  0  0  0
   -0.0590   -3.5220    1.2200 C   0  0  0  0  0
    0.9870   -4.2710    1.5730 C   0  0  0  0  0
    2.2120   -1.1650   -0.4080 C   0  0  0  0  0
    3.5520   -1.1320   -0.5530 N   0  0  0  0  0
    1.5260   -0.2750   -0.8790 O   0  0  0  0  0
    4.2650    0.1190   -1.3720 S   0  0  0  0  0
   -0.9560   -1.2340   -0.0720 S   0  0  0  0  0
   -2.5150   -1.9570    0.5080 C   0  0  0  0  0
   -3.6640   -1.0780    0.0870 C   0  0  0  0  0
   -4.2860   -1.2890   -1.1300 C   0  0  0  0  0
   -5.3400   -0.4840   -1.5170 C   0  0  0  0  0
   -5.7730    0.5350   -0.6880 C   0  0  0  0  0
   -5.1500    0.7470    0.5310 C   0  0  0  0  0
   -4.0990   -0.0640    0.9190 C   0  0  0  0  0
   -5.6930    2.0250    1.5730 CL  0  0  0  0  0
   -7.0970    1.5470   -1.1740 CL  0  0  0  0  0
    5.6660   -0.1150   -1.3210 O   0  0  0  0  0
    3.5450    0.2650   -2.5880 O   0  0  0  0  0
    3.9720    1.5860   -0.4410 C   0  0  0  0  0
    2.8380    2.3400   -0.6790 C   0  0  0  0  0
    2.6040    3.4930    0.0490 C   0  0  0  0  0
    3.5030    3.8930    1.0180 C   0  0  0  0  0
    4.6440    3.1380    1.2600 C   0  0  0  0  0
    4.8730    1.9780    0.5300 C   0  0  0  0  0
    5.5550    3.5400    2.2390 N   0  0  0  0  0
   -1.0740   -3.7880    1.4750 H   0  0  0  0  0
    0.9170   -5.1920    2.1340 H   0  0  0  0  0
    4.0980   -1.8400   -0.1790 H   0  0  0  0  0
   -2.6380   -2.9490    0.0740 H   0  0  0  0  0
   -2.4970   -2.0360    1.5950 H   0  0  0  0  0
   -3.9470   -2.0840   -1.7780 H   0  0  0  0  0
   -5.8250   -0.6490   -2.4680 H   0  0  0  0  0
   -3.6130    0.1010    1.8690 H   0  0  0  0  0
    2.1330    2.0290   -1.4360 H   0  0  0  0  0
    1.7180    4.0800   -0.1400 H   0  0  0  0  0
    3.3200    4.7930    1.5860 H   0  0  0  0  0
    5.7560    1.3860    0.7190 H   0  0  0  0  0
    5.3920    4.3480    2.7500 H   0  0  0  0  0
    6.3510    3.0120    2.4070 H   0  0  0  0  0
  1  5  1  0  0  0
  2  1  1  0  0  0
  3  2  2  0  0  0
  3  4  1  0  0  0
  4  5  2  0  0  0
  4 29  1  0  0  0
  5 30  1  0  0  0
  6  2  1  0  0  0
  6  7  1  0  0  0
  7 31  1  0  0  0
  8  6  2  0  0  0
  9  7  1  0  0  0
  9 20  2  0  0  0
 10  3  1  0  0  0
 10 11  1  0  0  0
 11 32  1  0  0  0
 11 33  1  0  0  0
 12 11  1  0  0  0
 13 12  2  0  0  0
 13 34  1  0  0  0
 14 13  1  0  0  0
 14 35  1  0  0  0
 15 14  2  0  0  0
 15 16  1  0  0  0
 16 17  2  0  0  0
 17 12  1  0  0  0
 17 36  1  0  0  0
 18 16  1  0  0  0
 19 15  1  0  0  0
 21  9  2  0  0  0
 22  9  1  0  0  0
 22 27  1  0  0  0
 23 22  2  0  0  0
 23 37  1  0  0  0
 24 23  1  0  0  0
 24 25  2  0  0  0
 24 38  1  0  0  0
 25 26  1  0  0  0
 25 39  1  0  0  0
 26 27  2  0  0  0
 26 28  1  0  0  0
 27 40  1  0  0  0
 28 41  1  0  0  0
 28 42  1  0  0  0
M  END
$$$$
