NX4
  CCTOOLS-0919241042

 47 49  0  0  0  0  0  0  0  0999 V2000
    0.1710    2.9150    0.6420 C   0  0  0  0  0
   -1.8890    1.9550   -0.3510 C   0  0  0  0  0
   -3.2240    2.0620   -0.5030 N   0  0  0  0  0
    1.2660    1.6890    0.0070 S   0  0  0  0  0
    2.8830    2.2210    0.6340 C   0  0  0  0  0
    3.9440    1.2580    0.1680 C   0  0  0  0  0
    4.5960    1.4750   -1.0310 C   0  0  0  0  0
    5.5700    0.5930   -1.4590 C   0  0  0  0  0
    5.8930   -0.5090   -0.6880 C   0  0  0  0  0
    5.2400   -0.7260    0.5140 C   0  0  0  0  0
    4.2690    0.1610    0.9430 C   0  0  0  0  0
    7.1150   -1.6180   -1.2250 CL  0  0  0  0  0
    5.6430   -2.1080    1.4840 CL  0  0  0  0  0
   -1.2880    1.0320   -0.8730 O   0  0  0  0  0
   -4.0480    0.9380   -1.3990 S   0  0  0  0  0
   -5.4190    1.3050   -1.3400 O   0  0  0  0  0
   -3.3330    0.7960   -2.6190 O   0  0  0  0  0
   -1.1860    2.9140    0.4140 C   0  0  0  0  0
    0.5850    3.9760    1.4270 C   0  0  0  0  0
   -0.3870    4.8010    1.8210 C   0  0  0  0  0
   -1.9040    4.2980    1.2270 S   0  0  0  0  0
   -3.9080   -0.6040   -0.5580 C   0  0  0  0  0
   -4.8560   -0.9620    0.3860 C   0  0  0  0  0
   -4.7580   -2.1680    1.0520 C   0  0  0  0  0
   -3.7060   -3.0300    0.7790 C   0  0  0  0  0
   -2.7440   -2.6710   -0.1770 C   0  0  0  0  0
   -2.8590   -1.4490   -0.8470 C   0  0  0  0  0
   -3.6080   -4.2140    1.4330 O   0  0  0  0  0
   -4.6240   -4.5110    2.3920 C   0  0  0  0  0
   -1.6220   -3.5780   -0.4760 C   0  0  0  0  0
   -0.7000   -3.2290   -1.3950 O   0  0  0  0  0
   -1.5280   -4.6410    0.1060 O   0  0  0  0  0
   -3.7020    2.7960   -0.0880 H   0  0  0  0  0
    3.1080    3.2190    0.2570 H   0  0  0  0  0
    2.8620    2.2400    1.7230 H   0  0  0  0  0
    4.3440    2.3350   -1.6350 H   0  0  0  0  0
    6.0790    0.7630   -2.3970 H   0  0  0  0  0
    3.7590   -0.0090    1.8800 H   0  0  0  0  0
    1.6190    4.1250    1.7020 H   0  0  0  0  0
   -0.2330    5.6740    2.4370 H   0  0  0  0  0
   -5.6770   -0.2950    0.6030 H   0  0  0  0  0
   -5.5010   -2.4400    1.7870 H   0  0  0  0  0
   -2.1230   -1.1660   -1.5840 H   0  0  0  0  0
   -4.6250   -3.7470    3.1690 H   0  0  0  0  0
   -5.5960   -4.5290    1.8990 H   0  0  0  0  0
   -4.4260   -5.4850    2.8410 H   0  0  0  0  0
    0.0170   -3.8560   -1.5570 H   0  0  0  0  0
  1 18  2  0  0  0
  1 19  1  0  0  0
  2  3  1  0  0  0
  2 18  1  0  0  0
  3 33  1  0  0  0
  4  1  1  0  0  0
  4  5  1  0  0  0
  5 34  1  0  0  0
  5 35  1  0  0  0
  6  5  1  0  0  0
  7  6  2  0  0  0
  7 36  1  0  0  0
  8  7  1  0  0  0
  8 37  1  0  0  0
  9  8  2  0  0  0
  9 10  1  0  0  0
 10 11  2  0  0  0
 11  6  1  0  0  0
 11 38  1  0  0  0
 12  9  1  0  0  0
 13 10  1  0  0  0
 14  2  2  0  0  0
 15  3  1  0  0  0
 15 16  2  0  0  0
 17 15  2  0  0  0
 18 21  1  0  0  0
 19 20  2  0  0  0
 19 39  1  0  0  0
 20 40  1  0  0  0
 21 20  1  0  0  0
 22 15  1  0  0  0
 22 23  1  0  0  0
 23 41  1  0  0  0
 24 23  2  0  0  0
 24 42  1  0  0  0
 25 24  1  0  0  0
 26 25  2  0  0  0
 26 27  1  0  0  0
 27 22  2  0  0  0
 27 43  1  0  0  0
 28 25  1  0  0  0
 28 29  1  0  0  0
 29 44  1  0  0  0
 29 45  1  0  0  0
 29 46  1  0  0  0
 30 26  1  0  0  0
 31 30  1  0  0  0
 31 47  1  0  0  0
 32 30  2  0  0  0
M  END
$$$$
