NX5
  CCTOOLS-0919241042

 29 30  0  0  0  0  0  0  0  0999 V2000
   -2.8530    0.4830    0.0230 C   0  0  0  0  0
   -1.2750   -0.2800    0.1920 S   0  0  0  0  0
   -0.2190    1.1890    0.2430 C   0  0  0  0  0
    1.2210    0.7670    0.3890 C   0  0  0  0  0
    1.9910    0.5370   -0.7370 C   0  0  0  0  0
    3.0930    0.2320    1.7820 C   0  0  0  0  0
    1.7730    0.6180    1.6470 C   0  0  0  0  0
    3.3120    0.1510   -0.6030 C   0  0  0  0  0
    3.8630   -0.0040    0.6580 C   0  0  0  0  0
    5.5220   -0.4880    0.8260 CL  0  0  0  0  0
    4.2790   -0.1390   -2.0160 CL  0  0  0  0  0
   -2.9570    1.8690   -0.0360 C   0  0  0  0  0
   -4.1940    2.4640   -0.1750 C   0  0  0  0  0
   -5.3410    1.6890   -0.2560 C   0  0  0  0  0
   -5.2600    0.3160   -0.1990 C   0  0  0  0  0
   -4.0140   -0.3040   -0.0590 C   0  0  0  0  0
   -3.9200   -1.7720    0.0010 C   0  0  0  0  0
   -5.0360   -2.5230   -0.0780 O   0  0  0  0  0
   -2.8350   -2.3070    0.1230 O   0  0  0  0  0
   -0.3400    1.7550   -0.6800 H   0  0  0  0  0
   -0.5030    1.8110    1.0910 H   0  0  0  0  0
    1.5600    0.6580   -1.7200 H   0  0  0  0  0
    3.5240    0.1150    2.7650 H   0  0  0  0  0
    1.1720    0.8020    2.5250 H   0  0  0  0  0
   -2.0690    2.4790    0.0260 H   0  0  0  0  0
   -4.2690    3.5400   -0.2200 H   0  0  0  0  0
   -6.3040    2.1660   -0.3640 H   0  0  0  0  0
   -6.1570   -0.2820   -0.2630 H   0  0  0  0  0
   -4.9230   -3.4830   -0.0330 H   0  0  0  0  0
  1 16  2  0  0  0
  1 12  1  0  0  0
  2  1  1  0  0  0
  2  3  1  0  0  0
  3 20  1  0  0  0
  3 21  1  0  0  0
  4  3  1  0  0  0
  5  4  1  0  0  0
  5 22  1  0  0  0
  6  7  1  0  0  0
  6 23  1  0  0  0
  7  4  2  0  0  0
  7 24  1  0  0  0
  8  5  2  0  0  0
  9  6  2  0  0  0
  9  8  1  0  0  0
 10  9  1  0  0  0
 11  8  1  0  0  0
 12 13  2  0  0  0
 12 25  1  0  0  0
 13 14  1  0  0  0
 13 26  1  0  0  0
 14 27  1  0  0  0
 15 14  2  0  0  0
 15 28  1  0  0  0
 16 15  1  0  0  0
 17 16  1  0  0  0
 17 18  1  0  0  0
 18 29  1  0  0  0
 19 17  2  0  0  0
M  END
$$$$
