NXV
  CCTOOLS-0919241042

 38 39  0  0  0  0  0  0  0  0999 V2000
    3.7830   -0.3450   -0.0680 C   0  0  0  0  0
    4.4510   -1.5710   -0.1720 C   0  0  0  0  0
    3.7510   -2.7410   -0.1650 C   0  0  0  0  0
    2.3560   -2.7250   -0.0540 C   0  0  0  0  0
    1.6760   -1.4990    0.0510 C   0  0  0  0  0
    2.3960   -0.3130    0.0500 C   0  0  0  0  0
    4.5290    0.8770   -0.0760 C   0  0  0  0  0
    5.1390    1.8800   -0.0820 C   0  0  0  0  0
    5.9050    3.1370   -0.0900 C   0  0  0  0  0
   -0.0800   -1.4690    0.1910 S   0  0  0  0  0
   -0.4510    0.3040    0.2950 C   0  0  0  0  0
   -1.9410    0.4990    0.4210 C   0  0  0  0  0
   -2.5290    0.5380    1.6710 C   0  0  0  0  0
   -3.8950    0.7170    1.7880 C   0  0  0  0  0
   -4.6730    0.8580    0.6530 C   0  0  0  0  0
   -4.0840    0.8180   -0.5990 C   0  0  0  0  0
   -2.7170    0.6440   -0.7140 C   0  0  0  0  0
   -5.0600    0.9940   -2.0240 CL  0  0  0  0  0
   -6.3880    1.0820    0.7990 CL  0  0  0  0  0
    1.6030   -3.9890   -0.0480 C   0  0  0  0  0
    0.3910   -3.9740    0.0480 O   0  0  0  0  0
    2.2560   -5.1630   -0.1500 O   0  0  0  0  0
    4.9440    4.3210    0.0350 C   0  0  0  0  0
    5.6880    5.5410    0.0270 O   0  0  0  0  0
    5.5280   -1.5900   -0.2580 H   0  0  0  0  0
    4.2740   -3.6820   -0.2460 H   0  0  0  0  0
    1.8810    0.6330    0.1300 H   0  0  0  0  0
    6.6020    3.1440    0.7480 H   0  0  0  0  0
    6.4610    3.2180   -1.0250 H   0  0  0  0  0
    0.0460    0.7290    1.1670 H   0  0  0  0  0
   -0.0940    0.8030   -0.6060 H   0  0  0  0  0
   -1.9210    0.4280    2.5570 H   0  0  0  0  0
   -4.3530    0.7480    2.7650 H   0  0  0  0  0
   -2.2560    0.6130   -1.6910 H   0  0  0  0  0
    1.7180   -5.9670   -0.1410 H   0  0  0  0  0
    4.2480    4.3140   -0.8030 H   0  0  0  0  0
    4.3890    4.2400    0.9700 H   0  0  0  0  0
    5.1410    6.3350    0.1040 H   0  0  0  0  0
  1  2  1  0  0  0
  1  7  1  0  0  0
  2 25  1  0  0  0
  3  2  2  0  0  0
  3 26  1  0  0  0
  4  3  1  0  0  0
  5  4  2  0  0  0
  5  6  1  0  0  0
  6  1  2  0  0  0
  6 27  1  0  0  0
  7  8  3  0  0  0
  8  9  1  0  0  0
  9 23  1  0  0  0
  9 28  1  0  0  0
  9 29  1  0  0  0
 10  5  1  0  0  0
 10 11  1  0  0  0
 11 30  1  0  0  0
 11 31  1  0  0  0
 12 11  1  0  0  0
 13 12  2  0  0  0
 13 32  1  0  0  0
 14 13  1  0  0  0
 14 33  1  0  0  0
 15 14  2  0  0  0
 15 16  1  0  0  0
 16 17  2  0  0  0
 17 12  1  0  0  0
 17 34  1  0  0  0
 18 16  1  0  0  0
 19 15  1  0  0  0
 20  4  1  0  0  0
 21 20  2  0  0  0
 22 20  1  0  0  0
 22 35  1  0  0  0
 23 24  1  0  0  0
 23 36  1  0  0  0
 23 37  1  0  0  0
 24 38  1  0  0  0
M  END
$$$$
