NXW
  CCTOOLS-0919241042

 61 63  0  0  0  0  0  0  0  0999 V2000
   -2.1320   -3.6480   -0.0510 C   0  0  0  0  0
   -0.9660   -3.7340    0.0490 C   0  0  0  0  0
   -5.7280   -4.5750   -0.1410 C   0  0  0  0  0
   -4.3580   -4.6790   -0.0240 C   0  0  0  0  0
    1.0470   -5.0820    0.4350 C   0  0  0  0  0
    2.4010   -5.1910    0.5470 C   0  0  0  0  0
    3.5830    1.6270   -1.8360 C   0  0  0  0  0
   -6.3130   -3.3510   -0.4080 C   0  0  0  0  0
    4.2490    2.8270   -2.0110 C   0  0  0  0  0
   -4.1480   -2.3070   -0.4360 C   0  0  0  0  0
    1.2540   -2.7020    0.0220 C   0  0  0  0  0
    3.4230    2.0560    0.5150 C   0  0  0  0  0
   -3.5560   -3.5430   -0.1710 C   0  0  0  0  0
    0.4570   -3.8380    0.1690 C   0  0  0  0  0
    3.2150   -4.0620    0.3960 C   0  0  0  0  0
    3.1710    1.2430   -0.5740 C   0  0  0  0  0
   -5.5250   -2.2150   -0.5570 C   0  0  0  0  0
    2.6320   -2.8090    0.1280 C   0  0  0  0  0
    4.5070    3.6400   -0.9220 C   0  0  0  0  0
    4.0980    3.2520    0.3430 C   0  0  0  0  0
    4.6750   -4.1840    0.5180 C   0  0  0  0  0
   -5.6010    0.1490   -0.3010 C   0  0  0  0  0
   -5.2620    7.2900    1.1720 C   0  0  0  0  0
    2.4450   -0.0650   -0.3850 C   0  0  0  0  0
   -6.3030    1.4680   -0.5000 C   0  0  0  0  0
   -5.3710    4.9200    0.6860 C   0  0  0  0  0
   -6.1940    3.8370   -0.0140 C   0  0  0  0  0
   -6.1230   -0.9780   -0.8220 N   0  0  0  0  0
   -6.0260    6.2230    0.5120 N   0  0  0  0  0
   -5.5380    2.5340    0.1600 N   0  0  0  0  0
    5.3800   -3.2030    0.3870 O   0  0  0  0  0
   -4.5650    0.1020    0.3290 O   0  0  0  0  0
    5.2320   -5.3850    0.7740 O   0  0  0  0  0
    3.6490   -1.3830   -0.0630 S   0  0  0  0  0
    5.3430    5.1450   -1.1410 CL  0  0  0  0  0
    4.4150    4.2740    1.7090 CL  0  0  0  0  0
   -6.3460   -5.4530   -0.0270 H   0  0  0  0  0
   -3.9050   -5.6380    0.1810 H   0  0  0  0  0
    0.4260   -5.9580    0.5480 H   0  0  0  0  0
    2.8480   -6.1530    0.7520 H   0  0  0  0  0
    3.3820    0.9930   -2.6870 H   0  0  0  0  0
   -7.3860   -3.2760   -0.5030 H   0  0  0  0  0
    4.5680    3.1280   -2.9980 H   0  0  0  0  0
   -3.5340   -1.4260   -0.5510 H   0  0  0  0  0
    0.7990   -1.7450   -0.1840 H   0  0  0  0  0
    3.1040    1.7530    1.5010 H   0  0  0  0  0
   -5.1860    7.0760    2.2380 H   0  0  0  0  0
   -4.2620    7.3410    0.7400 H   0  0  0  0  0
   -5.7700    8.2430    1.0280 H   0  0  0  0  0
    1.7620    0.0180    0.4600 H   0  0  0  0  0
    1.8810   -0.3010   -1.2870 H   0  0  0  0  0
   -6.3780    1.6810   -1.5660 H   0  0  0  0  0
   -7.3020    1.4160   -0.0680 H   0  0  0  0  0
   -5.2950    4.6900    1.7490 H   0  0  0  0  0
   -4.3720    4.9550    0.2500 H   0  0  0  0  0
   -7.1930    3.8020    0.4220 H   0  0  0  0  0
   -6.2690    4.0670   -1.0770 H   0  0  0  0  0
   -6.9140   -0.9320   -1.3820 H   0  0  0  0  0
   -6.9770    6.1970    0.8500 H   0  0  0  0  0
   -5.3990    2.3270    1.1380 H   0  0  0  0  0
    6.1960   -5.4160    0.8460 H   0  0  0  0  0
  1 13  1  0  0  0
  2  1  3  0  0  0
  3 37  1  0  0  0
  4  3  2  0  0  0
  4 38  1  0  0  0
  5 14  1  0  0  0
  5 39  1  0  0  0
  6  5  2  0  0  0
  6 15  1  0  0  0
  6 40  1  0  0  0
  7  9  1  0  0  0
  7 41  1  0  0  0
  8  3  1  0  0  0
  8 42  1  0  0  0
  9 19  2  0  0  0
  9 43  1  0  0  0
 10 13  2  0  0  0
 10 17  1  0  0  0
 10 44  1  0  0  0
 11 45  1  0  0  0
 12 20  2  0  0  0
 12 46  1  0  0  0
 13  4  1  0  0  0
 14  2  1  0  0  0
 14 11  2  0  0  0
 15 18  2  0  0  0
 16  7  2  0  0  0
 16 12  1  0  0  0
 17  8  2  0  0  0
 18 11  1  0  0  0
 18 34  1  0  0  0
 19 35  1  0  0  0
 20 19  1  0  0  0
 20 36  1  0  0  0
 21 15  1  0  0  0
 22 28  1  0  0  0
 23 47  1  0  0  0
 23 48  1  0  0  0
 23 49  1  0  0  0
 24 16  1  0  0  0
 24 50  1  0  0  0
 24 51  1  0  0  0
 25 22  1  0  0  0
 25 52  1  0  0  0
 25 53  1  0  0  0
 26 27  1  0  0  0
 26 54  1  0  0  0
 26 55  1  0  0  0
 27 30  1  0  0  0
 27 56  1  0  0  0
 27 57  1  0  0  0
 28 17  1  0  0  0
 28 58  1  0  0  0
 29 23  1  0  0  0
 29 26  1  0  0  0
 29 59  1  0  0  0
 30 25  1  0  0  0
 30 60  1  0  0  0
 31 21  2  0  0  0
 32 22  2  0  0  0
 33 21  1  0  0  0
 33 61  1  0  0  0
 34 24  1  0  0  0
M  END
$$$$
