NXY
  CCTOOLS-0919241042

 26 27  0  0  0  0  0  0  0  0999 V2000
   -2.7300   -0.4690   -0.0220 C   0  0  0  0  0
   -3.8820    0.2830    0.0320 C   0  0  0  0  0
   -1.1210    0.2250   -0.2100 S   0  0  0  0  0
   -2.9680   -1.8270    0.0920 C   0  0  0  0  0
   -5.2600   -0.7920    0.2240 S   0  0  0  0  0
   -3.9470    1.6910   -0.0530 C   0  0  0  0  0
   -0.0450   -1.2350   -0.2120 C   0  0  0  0  0
   -4.2510   -2.1670    0.2330 C   0  0  0  0  0
   -2.9250    2.3400   -0.1860 O   0  0  0  0  0
   -5.1410    2.3170    0.0130 O   0  0  0  0  0
    1.3900   -0.8000   -0.3680 C   0  0  0  0  0
    2.1540   -0.5250    0.7510 C   0  0  0  0  0
    1.9440   -0.6830   -1.6290 C   0  0  0  0  0
    3.4710   -0.1260    0.6090 C   0  0  0  0  0
    3.2590   -0.2850   -1.7730 C   0  0  0  0  0
    4.0230   -0.0040   -0.6550 C   0  0  0  0  0
    4.4300    0.2200    2.0140 CL  0  0  0  0  0
    5.6760    0.4960   -0.8350 CL  0  0  0  0  0
   -2.1730   -2.5580    0.0690 H   0  0  0  0  0
   -0.1610   -1.7740    0.7280 H   0  0  0  0  0
   -0.3190   -1.8870   -1.0410 H   0  0  0  0  0
   -4.6040   -3.1820    0.3340 H   0  0  0  0  0
   -5.0840    3.2800   -0.0540 H   0  0  0  0  0
    1.7220   -0.6200    1.7360 H   0  0  0  0  0
    1.3470   -0.9020   -2.5030 H   0  0  0  0  0
    3.6910   -0.1940   -2.7590 H   0  0  0  0  0
  1  2  2  0  0  0
  1  3  1  0  0  0
  2  6  1  0  0  0
  4  1  1  0  0  0
  4 19  1  0  0  0
  5  2  1  0  0  0
  6  9  2  0  0  0
  6 10  1  0  0  0
  7  3  1  0  0  0
  7 11  1  0  0  0
  7 20  1  0  0  0
  7 21  1  0  0  0
  8  4  2  0  0  0
  8  5  1  0  0  0
  8 22  1  0  0  0
 10 23  1  0  0  0
 11 12  2  0  0  0
 11 13  1  0  0  0
 12 14  1  0  0  0
 12 24  1  0  0  0
 13 15  2  0  0  0
 13 25  1  0  0  0
 14 16  2  0  0  0
 15 16  1  0  0  0
 15 26  1  0  0  0
 16 18  1  0  0  0
 17 14  1  0  0  0
M  END
$$$$
