NYB
  CCTOOLS-1004241126

 29 28  0  0  1  0  0  0  0  0999 V2000
    1.6350   -1.2530    0.7350 N   0  0  0  0  0
    1.5170   -0.2190   -0.3030 C   0  0  0  0  0
    0.2570    0.6120   -0.0540 C   0  0  0  0  0
   -1.2000   -0.4680   -0.1080 S   0  0  0  0  0
   -2.5700    0.6790    0.2030 C   0  0  0  0  0
   -2.4470    1.2470    1.6180 C   0  0  0  0  0
   -3.8990   -0.0660    0.0660 C   0  0  0  0  0
   -4.0790   -0.5270   -1.3810 C   0  0  0  0  0
    2.4350   -2.3890    0.2580 C   0  0  0  0  0
    2.7270    0.6780   -0.2570 C   0  0  0  0  0
    3.3410    0.8130    0.7750 O   0  0  0  0  0
    3.1230    1.3270   -1.3640 O   0  0  0  0  0
    2.0220   -0.8700    1.5840 H   0  0  0  0  0
    1.4530   -0.6930   -1.2820 H   0  0  0  0  0
    1.9650   -2.8190   -0.6270 H   0  0  0  0  0
    3.4390   -2.0460    0.0040 H   0  0  0  0  0
    2.4970   -3.1450    1.0410 H   0  0  0  0  0
    0.3220    1.0850    0.9260 H   0  0  0  0  0
    0.1690    1.3780   -0.8230 H   0  0  0  0  0
   -2.5330    1.4930   -0.5200 H   0  0  0  0  0
   -2.4840    0.4330    2.3420 H   0  0  0  0  0
   -1.5000    1.7780    1.7160 H   0  0  0  0  0
   -3.2710    1.9370    1.8060 H   0  0  0  0  0
   -3.9000   -0.9330    0.7270 H   0  0  0  0  0
   -4.7180    0.5990    0.3400 H   0  0  0  0  0
   -4.0780    0.3400   -2.0420 H   0  0  0  0  0
   -3.2600   -1.1930   -1.6550 H   0  0  0  0  0
   -5.0260   -1.0580   -1.4790 H   0  0  0  0  0
    3.9050    1.8910   -1.2860 H   0  0  0  0  0
  1  2  1  0  0  0
  1  9  1  0  0  0
  1 13  1  0  0  0
  2  3  1  0  0  0
  2 10  1  0  0  0
  2 14  1  0  0  0
  3  4  1  0  0  0
  3 18  1  0  0  0
  3 19  1  0  0  0
  4  5  1  0  0  0
  5  6  1  0  0  0
  5  7  1  0  0  0
  5 20  1  0  0  0
  6 21  1  0  0  0
  6 22  1  0  0  0
  6 23  1  0  0  0
  7  8  1  0  0  0
  7 24  1  0  0  0
  7 25  1  0  0  0
  8 26  1  0  0  0
  8 27  1  0  0  0
  8 28  1  0  0  0
  9 15  1  0  0  0
  9 16  1  0  0  0
  9 17  1  0  0  0
 10 11  2  0  0  0
 10 12  1  0  0  0
 12 29  1  0  0  0
M  END
$$$$
