O11
  CCTOOLS-0919241042

 69 70  0  0  1  0  0  0  0  0999 V2000
    0.4440   -0.1580   -0.3550 C   0  0  0  0  0
    0.6780   -1.4390    0.1090 C   0  0  0  0  0
   -7.1780    3.3250    0.6060 C   0  0  0  0  0
   -2.6550   -2.1490   -0.9380 C   0  0  0  0  0
   -3.8520   -1.4910   -1.1490 C   0  0  0  0  0
   -4.1640   -0.3660   -0.4000 C   0  0  0  0  0
   -5.5970    1.4330    0.2030 C   0  0  0  0  0
   -6.9580    2.0240   -0.1680 C   0  0  0  0  0
   -1.7690   -1.6860    0.0180 C   0  0  0  0  0
   -8.3950    3.9370    0.1750 O   0  0  0  0  0
   -7.9890    1.0920    0.1660 O   0  0  0  0  0
   -5.3410    0.2820   -0.6040 O   0  0  0  0  0
   -3.2740    0.0960    0.5590 C   0  0  0  0  0
   -2.0760   -0.5620    0.7610 C   0  0  0  0  0
   -0.4680   -2.4090    0.2490 C   0  0  0  0  0
   -0.3160   -3.5300   -0.7810 C   0  0  0  0  0
   -0.1560   -2.9230   -2.1760 C   0  0  0  0  0
   -0.4600   -3.0060    1.6580 C   0  0  0  0  0
   -1.5520   -4.0720    1.7660 C   0  0  0  0  0
    1.4920    0.7330   -0.4850 C   0  0  0  0  0
    1.9600   -1.8330    0.4420 C   0  0  0  0  0
    3.0120   -0.9460    0.3140 C   0  0  0  0  0
    2.7800    0.3400   -0.1510 C   0  0  0  0  0
    3.8120    1.2140   -0.2780 O   0  0  0  0  0
    5.1110    0.7410    0.0840 C   0  0  0  0  0
    6.1370    1.8570   -0.1250 C   0  0  0  0  0
    6.2240    2.1700   -1.5170 O   0  0  0  0  0
    7.5050    1.3930    0.3800 C   0  0  0  0  0
    8.5310    2.5090    0.1700 C   0  0  0  0  0
    7.4120    1.0590    1.8700 C   0  0  0  0  0
    7.9400    0.1490   -0.3960 C   0  0  0  0  0
   -0.5580    0.1460   -0.6190 H   0  0  0  0  0
   -7.2390    3.1080    1.6730 H   0  0  0  0  0
   -6.3450    4.0030    0.4210 H   0  0  0  0  0
   -2.4130   -3.0270   -1.5180 H   0  0  0  0  0
   -4.5430   -1.8530   -1.8960 H   0  0  0  0  0
   -4.8190    2.1770    0.0320 H   0  0  0  0  0
   -5.6000    1.1460    1.2550 H   0  0  0  0  0
   -6.9860    2.2290   -1.2380 H   0  0  0  0  0
   -8.5980    4.7690    0.6240 H   0  0  0  0  0
   -8.0240    0.8630    1.1040 H   0  0  0  0  0
   -3.5150    0.9720    1.1430 H   0  0  0  0  0
   -1.3830   -0.2020    1.5070 H   0  0  0  0  0
    0.5640   -4.1270   -0.5410 H   0  0  0  0  0
   -1.2020   -4.1650   -0.7600 H   0  0  0  0  0
   -0.1600   -3.7180   -2.9210 H   0  0  0  0  0
   -0.9810   -2.2380   -2.3710 H   0  0  0  0  0
    0.7870   -2.3790   -2.2290 H   0  0  0  0  0
    0.5110   -3.4610    1.8550 H   0  0  0  0  0
   -0.6470   -2.2190    2.3880 H   0  0  0  0  0
   -2.5110   -3.6400    1.4800 H   0  0  0  0  0
   -1.3160   -4.9040    1.1020 H   0  0  0  0  0
   -1.6090   -4.4320    2.7930 H   0  0  0  0  0
    1.3090    1.7330   -0.8470 H   0  0  0  0  0
    2.1400   -2.8350    0.8040 H   0  0  0  0  0
    4.0130   -1.2540    0.5760 H   0  0  0  0  0
    5.1090    0.4420    1.1320 H   0  0  0  0  0
    5.3730   -0.1150   -0.5380 H   0  0  0  0  0
    5.8270    2.7440    0.4280 H   0  0  0  0  0
    6.4950    1.4250   -2.0710 H   0  0  0  0  0
    8.2210    3.3960    0.7230 H   0  0  0  0  0
    9.5050    2.1790    0.5300 H   0  0  0  0  0
    8.5970    2.7470   -0.8910 H   0  0  0  0  0
    6.6810    0.2640    2.0190 H   0  0  0  0  0
    8.3870    0.7290    2.2290 H   0  0  0  0  0
    7.1020    1.9460    2.4230 H   0  0  0  0  0
    8.0060    0.3870   -1.4580 H   0  0  0  0  0
    8.9140   -0.1820   -0.0370 H   0  0  0  0  0
    7.2090   -0.6460   -0.2470 H   0  0  0  0  0
  1  2  2  0  0  0
  1 20  1  0  0  0
  1 32  1  0  0  0
  2 21  1  0  0  0
  3  8  1  0  0  0
  3 33  1  0  0  0
  3 34  1  0  0  0
  4  9  2  0  0  0
  4 35  1  0  0  0
  5  4  1  0  0  0
  5 36  1  0  0  0
  6  5  2  0  0  0
  6 13  1  0  0  0
  7 12  1  0  0  0
  7 37  1  0  0  0
  7 38  1  0  0  0
  8  7  1  0  0  0
  8 39  1  0  0  0
  9 15  1  0  0  0
 10  3  1  0  0  0
 10 40  1  0  0  0
 11  8  1  0  0  0
 11 41  1  0  0  0
 12  6  1  0  0  0
 13 14  2  0  0  0
 13 42  1  0  0  0
 14  9  1  0  0  0
 14 43  1  0  0  0
 15 18  1  0  0  0
 15  2  1  0  0  0
 15 16  1  0  0  0
 16 17  1  0  0  0
 16 44  1  0  0  0
 16 45  1  0  0  0
 17 46  1  0  0  0
 17 47  1  0  0  0
 17 48  1  0  0  0
 18 49  1  0  0  0
 18 50  1  0  0  0
 19 18  1  0  0  0
 19 51  1  0  0  0
 19 52  1  0  0  0
 19 53  1  0  0  0
 20 23  2  0  0  0
 20 54  1  0  0  0
 21 22  2  0  0  0
 21 55  1  0  0  0
 22 56  1  0  0  0
 23 22  1  0  0  0
 23 24  1  0  0  0
 25 24  1  0  0  0
 25 26  1  0  0  0
 25 57  1  0  0  0
 25 58  1  0  0  0
 26 59  1  0  0  0
 27 26  1  0  0  0
 27 60  1  0  0  0
 28 26  1  0  0  0
 28 31  1  0  0  0
 29 28  1  0  0  0
 29 61  1  0  0  0
 29 62  1  0  0  0
 29 63  1  0  0  0
 30 28  1  0  0  0
 30 64  1  0  0  0
 30 65  1  0  0  0
 30 66  1  0  0  0
 31 67  1  0  0  0
 31 68  1  0  0  0
 31 69  1  0  0  0
M  END
$$$$
