O75
  CCTOOLS-1004241127

 64 66  0  0  0  0  0  0  0  0999 V2000
   -2.8950   -0.3480    0.3680 C   0  0  0  0  0
   -3.0530   -1.6520    0.5730 N   0  0  0  0  0
   -4.2490   -2.2130    0.4610 C   0  0  0  0  0
   -5.3240   -1.5040    0.1430 N   0  0  0  0  0
   -5.2410   -0.2030   -0.0750 C   0  0  0  0  0
   -4.0110    0.4250    0.0320 C   0  0  0  0  0
   -4.3830   -3.6200    0.6890 C   0  0  0  0  0
   -4.4900   -4.7360    0.8700 N   0  0  0  0  0
   -6.4720    0.5890   -0.4350 C   0  0  0  0  0
   -7.1400   -0.0370   -1.6610 C   0  0  0  0  0
   -8.3900    0.7660   -2.0260 C   0  0  0  0  0
   -1.5570    0.2780    0.5000 C   0  0  0  0  0
   -0.4530   -0.5000    0.8360 C   0  0  0  0  0
    0.8010    0.0950    0.9580 C   0  0  0  0  0
    0.9420    1.4680    0.7430 C   0  0  0  0  0
   -0.1570    2.2330    0.4110 C   0  0  0  0  0
   -1.4020    1.6470    0.2830 C   0  0  0  0  0
    0.0010    3.7140    0.1820 C   0  0  0  0  0
   -0.3950    4.0290   -1.1230 F   0  0  0  0  0
   -0.7960    4.4160    1.0930 F   0  0  0  0  0
    1.3410    4.0730    0.3610 F   0  0  0  0  0
    1.9790   -0.7250    1.3140 C   0  0  0  0  0
    1.9060   -1.5310    2.2210 O   0  0  0  0  0
    3.1330   -0.5770    0.6340 N   0  0  0  0  0
    4.2590   -1.4770    0.8980 C   0  0  0  0  0
    4.1690   -2.6750   -0.0110 C   0  0  0  0  0
    4.7800   -2.6490   -1.2510 C   0  0  0  0  0
    4.6970   -3.7480   -2.0850 C   0  0  0  0  0
    4.0030   -4.8730   -1.6800 C   0  0  0  0  0
    3.3920   -4.8990   -0.4400 C   0  0  0  0  0
    3.4800   -3.8020    0.3970 C   0  0  0  0  0
    3.2610    0.4820   -0.3700 C   0  0  0  0  0
    3.9780    1.6850    0.2470 C   0  0  0  0  0
    3.9940    2.7930   -0.7180 N   0  0  0  0  0
    4.4580    4.0350   -0.0850 C   0  0  0  0  0
    4.8150    2.4590   -1.8890 C   0  0  0  0  0
   -3.9160    1.4870   -0.1410 H   0  0  0  0  0
   -7.1680    0.5800    0.4030 H   0  0  0  0  0
   -6.1890    1.6170   -0.6610 H   0  0  0  0  0
   -6.4440   -0.0280   -2.4990 H   0  0  0  0  0
   -7.4230   -1.0660   -1.4340 H   0  0  0  0  0
   -9.0860    0.7570   -1.1880 H   0  0  0  0  0
   -8.1070    1.7940   -2.2520 H   0  0  0  0  0
   -8.8660    0.3200   -2.8990 H   0  0  0  0  0
   -0.5680   -1.5610    1.0010 H   0  0  0  0  0
    1.9130    1.9310    0.8380 H   0  0  0  0  0
   -2.2580    2.2510    0.0230 H   0  0  0  0  0
    5.1950   -0.9500    0.7140 H   0  0  0  0  0
    4.2250   -1.8050    1.9370 H   0  0  0  0  0
    5.3220   -1.7700   -1.5670 H   0  0  0  0  0
    5.1740   -3.7280   -3.0540 H   0  0  0  0  0
    3.9380   -5.7320   -2.3320 H   0  0  0  0  0
    2.8490   -5.7770   -0.1240 H   0  0  0  0  0
    3.0020   -3.8220    1.3650 H   0  0  0  0  0
    3.8380    0.1110   -1.2170 H   0  0  0  0  0
    2.2700    0.7840   -0.7090 H   0  0  0  0  0
    3.4530    1.9970    1.1500 H   0  0  0  0  0
    5.0020    1.4080    0.4990 H   0  0  0  0  0
    5.4680    3.8910    0.2990 H   0  0  0  0  0
    4.4600    4.8390   -0.8210 H   0  0  0  0  0
    3.7900    4.2960    0.7360 H   0  0  0  0  0
    4.4080    1.5750   -2.3790 H   0  0  0  0  0
    4.8100    3.2970   -2.5870 H   0  0  0  0  0
    5.8380    2.2590   -1.5700 H   0  0  0  0  0
  1  6  1  0  0  0
  2  1  2  0  0  0
  2  3  1  0  0  0
  3  4  2  0  0  0
  4  5  1  0  0  0
  5  9  1  0  0  0
  6  5  2  0  0  0
  6 37  1  0  0  0
  7  3  1  0  0  0
  7  8  3  0  0  0
  9 38  1  0  0  0
  9 39  1  0  0  0
 10  9  1  0  0  0
 10 40  1  0  0  0
 10 41  1  0  0  0
 11 10  1  0  0  0
 11 42  1  0  0  0
 11 43  1  0  0  0
 11 44  1  0  0  0
 12  1  1  0  0  0
 12 13  1  0  0  0
 13 45  1  0  0  0
 14 13  2  0  0  0
 14 22  1  0  0  0
 15 14  1  0  0  0
 15 46  1  0  0  0
 16 15  2  0  0  0
 16 17  1  0  0  0
 17 12  2  0  0  0
 17 47  1  0  0  0
 18 16  1  0  0  0
 18 21  1  0  0  0
 19 18  1  0  0  0
 20 18  1  0  0  0
 22 23  2  0  0  0
 24 22  1  0  0  0
 24 32  1  0  0  0
 25 24  1  0  0  0
 25 48  1  0  0  0
 25 49  1  0  0  0
 26 25  1  0  0  0
 26 27  1  0  0  0
 27 50  1  0  0  0
 28 27  2  0  0  0
 28 51  1  0  0  0
 29 28  1  0  0  0
 29 52  1  0  0  0
 30 29  2  0  0  0
 30 31  1  0  0  0
 30 53  1  0  0  0
 31 26  2  0  0  0
 31 54  1  0  0  0
 32 33  1  0  0  0
 32 55  1  0  0  0
 32 56  1  0  0  0
 33 57  1  0  0  0
 33 58  1  0  0  0
 34 33  1  0  0  0
 34 35  1  0  0  0
 35 59  1  0  0  0
 35 60  1  0  0  0
 35 61  1  0  0  0
 36 34  1  0  0  0
 36 62  1  0  0  0
 36 63  1  0  0  0
 36 64  1  0  0  0
M  END
$$$$
