O8M
  CCTOOLS-0919241043

 46 48  0  0  1  0  0  0  0  0999 V2000
    4.7090   -2.1690   -1.3450 O   0  0  0  0  0
    5.1660   -1.9180   -0.2500 C   0  0  0  0  0
    4.6520   -0.7340    0.5280 C   0  0  0  0  0
    3.6080   -0.0530   -0.2500 N   0  0  0  0  0
    4.1670    0.5470   -1.4690 C   0  0  0  0  0
    2.9190    0.9560    0.5660 C   0  0  0  0  0
    1.6880    1.4650   -0.1870 C   0  0  0  0  0
    0.7230    0.4080   -0.3170 O   0  0  0  0  0
   -0.5840    1.0180   -0.2450 C   0  0  0  0  0
   -1.5940    0.0300    0.1370 N   0  0  0  0  0
   -2.8390   -0.1170   -0.4220 C   0  0  0  0  0
   -3.5110    0.4960   -1.3910 N   0  0  0  0  0
   -4.7290    0.1130   -1.7080 C   0  0  0  0  0
   -5.3420   -0.8830   -1.0950 N   0  0  0  0  0
   -4.7490   -1.5560   -0.1130 C   0  0  0  0  0
   -5.3990   -2.5980    0.5240 N   0  0  0  0  0
   -3.4470   -1.1840    0.2620 C   0  0  0  0  0
   -2.5590   -1.6240    1.1850 N   0  0  0  0  0
   -1.4690   -0.9170    1.1100 C   0  0  0  0  0
   -0.4220    2.0900    0.8620 C   0  0  0  0  0
   -1.3720    3.1440    0.6960 O   0  0  0  0  0
    1.0180    2.6010    0.6120 C   0  0  0  0  0
    0.9950    3.8060   -0.1560 O   0  0  0  0  0
   -0.2500   -1.1140    1.9730 C   0  0  0  0  0
    6.1310   -2.7000    0.2720 N   0  0  0  0  0
    4.2350   -1.0760    1.4750 H   0  0  0  0  0
    5.4720   -0.0420    0.7210 H   0  0  0  0  0
    4.6100   -0.2340   -2.0870 H   0  0  0  0  0
    3.3730    1.0450   -2.0250 H   0  0  0  0  0
    4.9320    1.2750   -1.1980 H   0  0  0  0  0
    2.6090    0.5100    1.5100 H   0  0  0  0  0
    3.5950    1.7890    0.7610 H   0  0  0  0  0
    1.9790    1.8250   -1.1730 H   0  0  0  0  0
   -0.8430    1.4820   -1.1970 H   0  0  0  0  0
   -5.2480    0.6330   -2.5000 H   0  0  0  0  0
   -6.2980   -2.8450    0.2560 H   0  0  0  0  0
   -4.9560   -3.0810    1.2390 H   0  0  0  0  0
   -0.5090    1.6430    1.8520 H   0  0  0  0  0
   -1.3110    3.8390    1.3650 H   0  0  0  0  0
    1.5370    2.7590    1.5570 H   0  0  0  0  0
    0.5840    4.5540    0.2990 H   0  0  0  0  0
   -0.3380   -0.5030    2.8710 H   0  0  0  0  0
   -0.1690   -2.1640    2.2540 H   0  0  0  0  0
    0.6400   -0.8170    1.4180 H   0  0  0  0  0
    6.4600   -3.4640   -0.2270 H   0  0  0  0  0
    6.4970   -2.4990    1.1480 H   0  0  0  0  0
  1  2  2  0  0  0
  2  3  1  0  0  0
  2 25  1  0  0  0
  3  4  1  0  0  0
  3 26  1  0  0  0
  3 27  1  0  0  0
  4  5  1  0  0  0
  4  6  1  0  0  0
  5 28  1  0  0  0
  5 29  1  0  0  0
  5 30  1  0  0  0
  6  7  1  0  0  0
  6 31  1  0  0  0
  6 32  1  0  0  0
  7  8  1  0  0  0
  7 22  1  0  0  0
  7 33  1  0  0  0
  8  9  1  0  0  0
  9 10  1  0  0  0
  9 20  1  0  0  0
  9 34  1  0  0  0
 10 11  1  0  0  0
 10 19  1  0  0  0
 11 12  2  0  0  0
 11 17  1  0  0  0
 12 13  1  0  0  0
 13 14  2  0  0  0
 13 35  1  0  0  0
 14 15  1  0  0  0
 15 16  1  0  0  0
 15 17  2  0  0  0
 16 36  1  0  0  0
 16 37  1  0  0  0
 17 18  1  0  0  0
 18 19  2  0  0  0
 19 24  1  0  0  0
 20 21  1  0  0  0
 20 22  1  0  0  0
 20 38  1  0  0  0
 21 39  1  0  0  0
 22 23  1  0  0  0
 22 40  1  0  0  0
 23 41  1  0  0  0
 24 42  1  0  0  0
 24 43  1  0  0  0
 24 44  1  0  0  0
 25 45  1  0  0  0
 25 46  1  0  0  0
M  END
$$$$
