OBH
  CCTOOLS-0919241044

 53 57  0  0  1  0  0  0  0  0999 V2000
   -3.9970   -1.1420   -0.7330 C   0  0  0  0  0
   -5.1270   -1.6740   -0.1500 C   0  0  0  0  0
   -5.0130   -2.5430    0.9270 C   0  0  0  0  0
   -6.1300   -3.0660    1.4970 O   0  0  0  0  0
   -3.7600   -2.8800    1.4230 C   0  0  0  0  0
   -2.6240   -2.3540    0.8480 C   0  0  0  0  0
   -2.7340   -1.4790   -0.2370 C   0  0  0  0  0
   -1.5230   -0.9130   -0.8560 C   0  0  0  0  0
   -1.1510    0.3910   -0.8800 C   0  0  0  0  0
   -1.8750    1.5310   -0.2920 C   0  0  0  0  0
   -2.0410    1.6180    1.0930 C   0  0  0  0  0
   -2.7200    2.6870    1.6380 C   0  0  0  0  0
   -3.2390    3.6760    0.8130 C   0  0  0  0  0
   -3.9080    4.7270    1.3540 O   0  0  0  0  0
   -3.0770    3.5940   -0.5640 C   0  0  0  0  0
   -2.3950    2.5330   -1.1180 C   0  0  0  0  0
    0.1770    0.4360   -1.6420 C   0  0  0  0  0
   -0.0150   -0.6700   -2.5880 O   0  0  0  0  0
   -0.4240   -1.6780   -1.5980 C   0  0  0  0  0
    0.8020   -1.6680   -0.6330 C   0  0  0  0  0
    1.2270   -0.1820   -0.6670 C   0  0  0  0  0
    2.9080    0.0010   -1.3250 S   0  0  0  0  0
    3.0800   -0.8040   -2.4830 O   0  0  0  0  0
    3.3010    1.3660   -1.3160 O   0  0  0  0  0
    3.7980   -0.6530   -0.2770 O   0  0  0  0  0
    3.9690    0.1270    0.9080 C   0  0  0  0  0
    4.0090   -0.7870    2.0960 C   0  0  0  0  0
    5.1150   -1.1370    2.6780 C   0  0  0  0  0
    6.4610   -0.6590    2.2210 C   0  0  0  0  0
    6.3400    0.5750    1.3780 C   0  0  0  0  0
    5.2340    0.9230    0.7940 C   0  0  0  0  0
   -4.0870   -0.4700   -1.5730 H   0  0  0  0  0
   -6.1040   -1.4150   -0.5320 H   0  0  0  0  0
   -6.4170   -3.9020    1.1060 H   0  0  0  0  0
   -3.6760   -3.5560    2.2610 H   0  0  0  0  0
   -1.6510   -2.6160    1.2340 H   0  0  0  0  0
   -1.6380    0.8490    1.7350 H   0  0  0  0  0
   -2.8480    2.7550    2.7080 H   0  0  0  0  0
   -3.3430    5.4820    1.5730 H   0  0  0  0  0
   -3.4830    4.3660   -1.2020 H   0  0  0  0  0
   -2.2660    2.4720   -2.1890 H   0  0  0  0  0
    0.4360    1.3990   -2.0810 H   0  0  0  0  0
   -0.7130   -2.6500   -1.9990 H   0  0  0  0  0
    0.5080   -1.9680    0.3730 H   0  0  0  0  0
    1.6000   -2.3080   -1.0100 H   0  0  0  0  0
    1.1470    0.2640    0.3240 H   0  0  0  0  0
    3.0770   -1.1720    2.4830 H   0  0  0  0  0
    5.0640   -1.7990    3.5300 H   0  0  0  0  0
    7.0770   -0.4370    3.0930 H   0  0  0  0  0
    6.9400   -1.4450    1.6380 H   0  0  0  0  0
    7.2110    1.2000    1.2500 H   0  0  0  0  0
    5.2250    1.8260    0.2020 H   0  0  0  0  0
    3.1260    0.8100    1.0110 H   0  0  0  0  0
  1  2  2  0  0  0
  1  7  1  0  0  0
  1 32  1  0  0  0
  2  3  1  0  0  0
  2 33  1  0  0  0
  3  4  1  0  0  0
  3  5  2  0  0  0
  4 34  1  0  0  0
  5  6  1  0  0  0
  5 35  1  0  0  0
  6  7  2  0  0  0
  6 36  1  0  0  0
  7  8  1  0  0  0
  8  9  2  0  0  0
  8 19  1  0  0  0
  9 10  1  0  0  0
  9 17  1  0  0  0
 10 11  2  0  0  0
 10 16  1  0  0  0
 11 12  1  0  0  0
 11 37  1  0  0  0
 12 13  2  0  0  0
 12 38  1  0  0  0
 13 14  1  0  0  0
 13 15  1  0  0  0
 14 39  1  0  0  0
 15 16  2  0  0  0
 15 40  1  0  0  0
 16 41  1  0  0  0
 17 18  1  0  0  0
 17 21  1  0  0  0
 17 42  1  0  0  0
 18 19  1  0  0  0
 19 20  1  0  0  0
 19 43  1  0  0  0
 20 21  1  0  0  0
 20 44  1  0  0  0
 20 45  1  0  0  0
 21 22  1  0  0  0
 21 46  1  0  0  0
 22 23  2  0  0  0
 22 24  2  0  0  0
 22 25  1  0  0  0
 25 26  1  0  0  0
 26 27  1  0  0  0
 26 31  1  0  0  0
 26 53  1  0  0  0
 27 28  2  0  0  0
 27 47  1  0  0  0
 28 29  1  0  0  0
 28 48  1  0  0  0
 29 30  1  0  0  0
 29 49  1  0  0  0
 29 50  1  0  0  0
 30 31  2  0  0  0
 30 51  1  0  0  0
 31 52  1  0  0  0
M  END
$$$$
