ODE
  CCTOOLS-0919241044

 55 58  0  0  1  0  0  0  0  0999 V2000
    1.8840    0.7930   -0.9110 C   0  0  0  0  0
    2.9730    1.0260   -1.7220 C   0  0  0  0  0
    4.2140    1.3000   -1.1610 C   0  0  0  0  0
    5.2850    1.5290   -1.9650 O   0  0  0  0  0
    4.3630    1.3400    0.2190 C   0  0  0  0  0
    3.2800    1.1090    1.0390 C   0  0  0  0  0
    2.0290    0.8330    0.4790 C   0  0  0  0  0
    0.8670    0.5850    1.3500 C   0  0  0  0  0
    0.2030    1.5810    2.3060 C   0  0  0  0  0
   -0.2520    0.6760    3.3680 O   0  0  0  0  0
   -1.1530    1.9520    1.6280 C   0  0  0  0  0
   -0.9500    2.3110    0.1790 C   0  0  0  0  0
    0.1650    2.5000   -0.2460 O   0  0  0  0  0
   -2.0080    2.4210   -0.6400 O   0  0  0  0  0
   -1.7370    2.7700   -2.0230 C   0  0  0  0  0
   -3.0550    2.8480   -2.7960 C   0  0  0  0  0
   -1.9540    0.6300    1.7650 C   0  0  0  0  0
   -2.3060    0.0710    0.4100 C   0  0  0  0  0
   -1.4620   -0.0050   -0.4500 O   0  0  0  0  0
   -3.5590   -0.3420    0.1600 O   0  0  0  0  0
   -3.8270   -0.8670   -1.1670 C   0  0  0  0  0
   -5.2700   -1.3700   -1.2340 C   0  0  0  0  0
   -0.9310   -0.2920    2.5000 C   0  0  0  0  0
    0.1640   -0.5690    1.4660 C   0  0  0  0  0
    0.4070   -1.8310    0.7460 C   0  0  0  0  0
   -0.6340   -2.4520    0.0490 C   0  0  0  0  0
   -0.4020   -3.6320   -0.6230 C   0  0  0  0  0
    0.8630   -4.2050   -0.6090 C   0  0  0  0  0
    1.0870   -5.3690   -1.2730 O   0  0  0  0  0
    1.9010   -3.5920    0.0820 C   0  0  0  0  0
    1.6800   -2.4090    0.7530 C   0  0  0  0  0
    0.9190    0.5840   -1.3480 H   0  0  0  0  0
    2.8620    0.9940   -2.7960 H   0  0  0  0  0
    5.4070    2.4580   -2.2030 H   0  0  0  0  0
    5.3300    1.5540    0.6510 H   0  0  0  0  0
    3.3970    1.1410    2.1120 H   0  0  0  0  0
    0.8260    2.4160    2.6250 H   0  0  0  0  0
   -1.6460    2.7630    2.1640 H   0  0  0  0  0
   -1.2350    3.7360   -2.0630 H   0  0  0  0  0
   -1.0980    2.0090   -2.4710 H   0  0  0  0  0
   -2.8520    3.1100   -3.8350 H   0  0  0  0  0
   -3.5580    1.8820   -2.7570 H   0  0  0  0  0
   -3.6950    3.6090   -2.3480 H   0  0  0  0  0
   -2.8490    0.7770    2.3680 H   0  0  0  0  0
   -3.6810   -0.0790   -1.9060 H   0  0  0  0  0
   -3.1450   -1.6910   -1.3750 H   0  0  0  0  0
   -5.4160   -2.1570   -0.4950 H   0  0  0  0  0
   -5.9520   -0.5450   -1.0260 H   0  0  0  0  0
   -5.4710   -1.7640   -2.2300 H   0  0  0  0  0
   -1.3560   -1.1640    2.9980 H   0  0  0  0  0
   -1.6180   -2.0070    0.0380 H   0  0  0  0  0
   -1.2050   -4.1130   -1.1610 H   0  0  0  0  0
    1.3670   -5.2510   -2.1910 H   0  0  0  0  0
    2.8830   -4.0410    0.0900 H   0  0  0  0  0
    2.4880   -1.9310    1.2870 H   0  0  0  0  0
  1  7  2  0  0  0
  1  2  1  0  0  0
  1 32  1  0  0  0
  2  3  2  0  0  0
  2 33  1  0  0  0
  3  5  1  0  0  0
  3  4  1  0  0  0
  4 34  1  0  0  0
  5  6  2  0  0  0
  5 35  1  0  0  0
  6  7  1  0  0  0
  6 36  1  0  0  0
  7  8  1  0  0  0
  8  9  1  0  0  0
  8 24  2  0  0  0
  9 10  1  0  0  0
  9 11  1  0  0  0
  9 37  1  0  0  0
 10 23  1  0  0  0
 11 17  1  0  0  0
 11 12  1  0  0  0
 11 38  1  0  0  0
 12 14  1  0  0  0
 12 13  2  0  0  0
 14 15  1  0  0  0
 15 16  1  0  0  0
 15 39  1  0  0  0
 15 40  1  0  0  0
 16 41  1  0  0  0
 16 42  1  0  0  0
 16 43  1  0  0  0
 17 18  1  0  0  0
 17 23  1  0  0  0
 17 44  1  0  0  0
 18 20  1  0  0  0
 18 19  2  0  0  0
 20 21  1  0  0  0
 21 22  1  0  0  0
 21 45  1  0  0  0
 21 46  1  0  0  0
 22 47  1  0  0  0
 22 48  1  0  0  0
 22 49  1  0  0  0
 23 24  1  0  0  0
 23 50  1  0  0  0
 24 25  1  0  0  0
 25 31  2  0  0  0
 25 26  1  0  0  0
 26 27  2  0  0  0
 26 51  1  0  0  0
 27 28  1  0  0  0
 27 52  1  0  0  0
 28 30  2  0  0  0
 28 29  1  0  0  0
 29 53  1  0  0  0
 30 31  1  0  0  0
 30 54  1  0  0  0
 31 55  1  0  0  0
M  END
$$$$
