ODT
  CCTOOLS-0919241044

 50 49  0  0  0  0  0  0  0  0999 V2000
   -8.7580    1.0620   -1.1930 O   0  0  0  0  0
   -8.8990    0.6410   -0.0700 C   0  0  0  0  0
  -10.1190    0.6180    0.4900 O   0  0  0  0  0
   -7.7060    0.1400    0.7030 C   0  0  0  0  0
   -6.4480    0.2750   -0.1570 C   0  0  0  0  0
   -5.2370   -0.2340    0.6270 C   0  0  0  0  0
   -3.9790   -0.0990   -0.2330 C   0  0  0  0  0
   -2.7670   -0.6070    0.5510 C   0  0  0  0  0
   -1.5090   -0.4720   -0.3090 C   0  0  0  0  0
   -0.2980   -0.9810    0.4750 C   0  0  0  0  0
    0.9600   -0.8460   -0.3850 C   0  0  0  0  0
    2.1710   -1.3540    0.3990 C   0  0  0  0  0
    3.4100   -1.2210   -0.4480 C   0  0  0  0  0
    4.4640   -0.5470    0.0120 C   0  0  0  0  0
    5.6680   -0.4180   -0.8110 C   0  0  0  0  0
    6.7340    0.2640   -0.3450 C   0  0  0  0  0
    7.9380    0.3930   -1.1680 C   0  0  0  0  0
    9.0290    0.9750   -0.6680 C   0  0  0  0  0
    9.0720    1.3720    0.7850 C   0  0  0  0  0
   10.3080    0.7590    1.4450 C   0  0  0  0  0
  -10.8840    0.9400   -0.0050 H   0  0  0  0  0
   -7.8560   -0.9070    0.9650 H   0  0  0  0  0
   -7.5890    0.7290    1.6130 H   0  0  0  0  0
   -6.2980    1.3220   -0.4190 H   0  0  0  0  0
   -6.5650   -0.3140   -1.0670 H   0  0  0  0  0
   -5.3870   -1.2810    0.8890 H   0  0  0  0  0
   -5.1200    0.3550    1.5370 H   0  0  0  0  0
   -3.8280    0.9490   -0.4950 H   0  0  0  0  0
   -4.0960   -0.6880   -1.1430 H   0  0  0  0  0
   -2.9180   -1.6540    0.8130 H   0  0  0  0  0
   -2.6500   -0.0180    1.4610 H   0  0  0  0  0
   -1.3590    0.5750   -0.5710 H   0  0  0  0  0
   -1.6270   -1.0610   -1.2190 H   0  0  0  0  0
   -0.4490   -2.0280    0.7370 H   0  0  0  0  0
   -0.1810   -0.3920    1.3850 H   0  0  0  0  0
    1.1100    0.2020   -0.6470 H   0  0  0  0  0
    0.8430   -1.4350   -1.2950 H   0  0  0  0  0
    2.0210   -2.4010    0.6610 H   0  0  0  0  0
    2.2880   -0.7650    1.3090 H   0  0  0  0  0
    3.4440   -1.6720   -1.4290 H   0  0  0  0  0
    4.4290   -0.0960    0.9930 H   0  0  0  0  0
    5.7020   -0.8690   -1.7920 H   0  0  0  0  0
    6.7000    0.7150    0.6360 H   0  0  0  0  0
    7.9430    0.0170   -2.1810 H   0  0  0  0  0
    9.8810    1.1610   -1.3050 H   0  0  0  0  0
    8.1740    1.0100    1.2870 H   0  0  0  0  0
    9.1190    2.4580    0.8630 H   0  0  0  0  0
   10.3390    1.0460    2.4960 H   0  0  0  0  0
   10.2610   -0.3270    1.3660 H   0  0  0  0  0
   11.2050    1.1210    0.9420 H   0  0  0  0  0
  1  2  2  0  0  0
  2  3  1  0  0  0
  2  4  1  0  0  0
  3 21  1  0  0  0
  4  5  1  0  0  0
  4 22  1  0  0  0
  4 23  1  0  0  0
  5  6  1  0  0  0
  5 24  1  0  0  0
  5 25  1  0  0  0
  6  7  1  0  0  0
  6 26  1  0  0  0
  6 27  1  0  0  0
  7  8  1  0  0  0
  7 28  1  0  0  0
  7 29  1  0  0  0
  8  9  1  0  0  0
  8 30  1  0  0  0
  8 31  1  0  0  0
  9 10  1  0  0  0
  9 32  1  0  0  0
  9 33  1  0  0  0
 10 11  1  0  0  0
 10 34  1  0  0  0
 10 35  1  0  0  0
 11 12  1  0  0  0
 11 36  1  0  0  0
 11 37  1  0  0  0
 12 13  1  0  0  0
 12 38  1  0  0  0
 12 39  1  0  0  0
 13 14  2  0  0  0
 13 40  1  0  0  0
 14 15  1  0  0  0
 14 41  1  0  0  0
 15 16  2  0  0  0
 15 42  1  0  0  0
 16 17  1  0  0  0
 16 43  1  0  0  0
 17 18  2  0  0  0
 17 44  1  0  0  0
 18 19  1  0  0  0
 18 45  1  0  0  0
 19 20  1  0  0  0
 19 46  1  0  0  0
 19 47  1  0  0  0
 20 48  1  0  0  0
 20 49  1  0  0  0
 20 50  1  0  0  0
M  END
$$$$
