OEF
  CCTOOLS-0919241044

 42 43  0  0  0  0  0  0  0  0999 V2000
    5.2040   -2.7630   -3.3340 C   0  0  0  0  0
    1.8850   -1.0360   -0.1120 C   0  0  0  0  0
    4.0710   -3.5280   -3.0550 C   0  0  0  0  0
    2.9210   -1.6310    0.6080 C   0  0  0  0  0
    2.9710   -2.9410   -2.4300 C   0  0  0  0  0
    2.8780   -1.6520    2.0020 C   0  0  0  0  0
    3.0190   -1.5980   -2.0920 C   0  0  0  0  0
    1.8000   -1.0790    2.6760 C   0  0  0  0  0
    4.1370   -0.8260   -2.3630 C   0  0  0  0  0
    0.7640   -0.4840    1.9550 C   0  0  0  0  0
    5.2370   -1.4120   -2.9880 C   0  0  0  0  0
    0.8070   -0.4630    0.5610 C   0  0  0  0  0
    6.3810   -3.3910   -4.0020 C   0  0  0  0  0
    7.4010   -3.9850   -3.0240 C   0  0  0  0  0
    1.4500   -4.0150   -2.0690 BR  0  0  0  0  0
    3.9960   -2.2910    2.7570 C   0  0  0  0  0
    4.2240    1.0120   -1.9060 BR  0  0  0  0  0
    1.9270   -1.0160   -1.4730 O   0  0  0  0  0
    1.7430   -1.0900    4.0370 O   0  0  0  0  0
    8.5880   -4.5750   -3.7470 C   0  0  0  0  0
    5.3440   -1.5860    2.5190 C   0  0  0  0  0
    9.4870   -5.1450   -2.9080 O   0  0  0  0  0
    8.7170   -4.5650   -4.9650 O   0  0  0  0  0
    4.1300   -3.7940    2.4490 C   0  0  0  0  0
    4.0540   -4.5800   -3.3290 H   0  0  0  0  0
    6.1260   -0.8250   -3.2080 H   0  0  0  0  0
    6.0540   -4.1730   -4.7090 H   0  0  0  0  0
    6.8900   -2.6360   -4.6250 H   0  0  0  0  0
    3.7600   -2.0770    0.0800 H   0  0  0  0  0
   -0.0030    0.0010    0.0050 H   0  0  0  0  0
    3.8030   -2.2190    3.8440 H   0  0  0  0  0
   -0.0790   -0.0360    2.4740 H   0  0  0  0  0
    1.0450   -0.4920    4.3480 H   0  0  0  0  0
    7.7920   -3.2030   -2.3610 H   0  0  0  0  0
    6.9470   -4.7340   -2.3670 H   0  0  0  0  0
    5.6640   -1.6680    1.4750 H   0  0  0  0  0
    6.1360   -2.0150    3.1430 H   0  0  0  0  0
    5.2670   -0.5200    2.7620 H   0  0  0  0  0
    3.1820   -4.3090    2.6380 H   0  0  0  0  0
    4.8970   -4.2640    3.0740 H   0  0  0  0  0
    4.4010   -3.9690    1.4020 H   0  0  0  0  0
   10.2640   -5.5580   -3.3410 H   0  0  0  0  0
  1  3  2  0  0  0
  1 11  1  0  0  0
  1 13  1  0  0  0
  2  4  1  0  0  0
  2 12  2  0  0  0
  2 18  1  0  0  0
  3  5  1  0  0  0
  3 25  1  0  0  0
  4  6  2  0  0  0
  4 29  1  0  0  0
  5  7  2  0  0  0
  5 15  1  0  0  0
  6  8  1  0  0  0
  6 16  1  0  0  0
  7  9  1  0  0  0
  7 18  1  0  0  0
  8 10  2  0  0  0
  8 19  1  0  0  0
  9 11  2  0  0  0
  9 17  1  0  0  0
 10 12  1  0  0  0
 10 32  1  0  0  0
 11 26  1  0  0  0
 12 30  1  0  0  0
 13 14  1  0  0  0
 13 27  1  0  0  0
 13 28  1  0  0  0
 14 20  1  0  0  0
 14 34  1  0  0  0
 14 35  1  0  0  0
 16 21  1  0  0  0
 16 24  1  0  0  0
 16 31  1  0  0  0
 19 33  1  0  0  0
 20 22  1  0  0  0
 20 23  2  0  0  0
 21 36  1  0  0  0
 21 37  1  0  0  0
 21 38  1  0  0  0
 22 42  1  0  0  0
 24 39  1  0  0  0
 24 40  1  0  0  0
 24 41  1  0  0  0
M  END
$$$$
