OLC
  CCTOOLS-0919241027

 65 64  0  0  1  0  0  0  0  0999 V2000
   12.1960   -3.5480   -0.3090 C   0  0  0  0  0
    4.7420    3.0470    0.3560 C   0  0  0  0  0
    3.6460    3.2850   -0.3210 C   0  0  0  0  0
   10.7520   -3.3350    0.1490 C   0  0  0  0  0
    5.1570    1.6280    0.6440 C   0  0  0  0  0
    2.7130    2.1530   -0.6650 C   0  0  0  0  0
  -10.4650   -1.1190    0.6660 C   0  0  0  0  0
   10.3310   -1.8940   -0.1440 C   0  0  0  0  0
    6.6010    1.4150    0.1860 C   0  0  0  0  0
    1.2960    2.5020   -0.2040 C   0  0  0  0  0
    8.8870   -1.6810    0.3140 C   0  0  0  0  0
    7.0220   -0.0270    0.4790 C   0  0  0  0  0
    0.3490    1.3520   -0.5530 C   0  0  0  0  0
    8.4660   -0.2390    0.0210 C   0  0  0  0  0
   -1.0680    1.7010   -0.0920 C   0  0  0  0  0
   -2.0160    0.5520   -0.4420 C   0  0  0  0  0
   -3.4320    0.9010    0.0200 C   0  0  0  0  0
   -4.3800   -0.2490   -0.3300 C   0  0  0  0  0
   -8.0970   -0.3740    0.3850 C   0  0  0  0  0
   -5.7750    0.0950    0.1240 C   0  0  0  0  0
   -9.1040   -1.4820    0.0680 C   0  0  0  0  0
   -5.9900    1.1510    0.6710 O   0  0  0  0  0
  -11.3750   -2.2040    0.4710 O   0  0  0  0  0
   -9.2280   -1.6220   -1.3490 O   0  0  0  0  0
   -6.7800   -0.7720   -0.0790 O   0  0  0  0  0
   12.8520   -2.8620    0.2270 H   0  0  0  0  0
   12.4960   -4.5750   -0.1000 H   0  0  0  0  0
   12.2690   -3.3590   -1.3800 H   0  0  0  0  0
    5.3480    3.8690    0.7070 H   0  0  0  0  0
    3.4110    4.2920   -0.6330 H   0  0  0  0  0
   10.0960   -4.0210   -0.3870 H   0  0  0  0  0
   10.6790   -3.5240    1.2200 H   0  0  0  0  0
    5.0840    1.4380    1.7150 H   0  0  0  0  0
    4.5010    0.9420    0.1090 H   0  0  0  0  0
    2.7150    1.9950   -1.7440 H   0  0  0  0  0
    3.0440    1.2430   -0.1640 H   0  0  0  0  0
  -10.3540   -0.9250    1.7330 H   0  0  0  0  0
  -10.8530   -0.2270    0.1730 H   0  0  0  0  0
   10.9870   -1.2070    0.3920 H   0  0  0  0  0
   10.4040   -1.7040   -1.2150 H   0  0  0  0  0
    6.6740    1.6040   -0.8850 H   0  0  0  0  0
    7.2570    2.1010    0.7220 H   0  0  0  0  0
    1.2940    2.6600    0.8740 H   0  0  0  0  0
    0.9650    3.4110   -0.7050 H   0  0  0  0  0
    8.2310   -2.3670   -0.2220 H   0  0  0  0  0
    8.8140   -1.8700    1.3850 H   0  0  0  0  0
    6.9490   -0.2160    1.5500 H   0  0  0  0  0
    6.3660   -0.7130   -0.0560 H   0  0  0  0  0
    0.3510    1.1940   -1.6320 H   0  0  0  0  0
    0.6800    0.4430   -0.0520 H   0  0  0  0  0
    9.1220    0.4470    0.5570 H   0  0  0  0  0
    8.5390   -0.0500   -1.0500 H   0  0  0  0  0
   -1.0710    1.8590    0.9860 H   0  0  0  0  0
   -1.4000    2.6110   -0.5930 H   0  0  0  0  0
   -2.0130    0.3940   -1.5200 H   0  0  0  0  0
   -1.6840   -0.3570    0.0600 H   0  0  0  0  0
   -3.4350    1.0590    1.0980 H   0  0  0  0  0
   -3.7640    1.8100   -0.4820 H   0  0  0  0  0
   -4.3770   -0.4060   -1.4080 H   0  0  0  0  0
   -4.0480   -1.1580    0.1710 H   0  0  0  0  0
   -8.3970    0.5450   -0.1180 H   0  0  0  0  0
   -8.0680   -0.2070    1.4620 H   0  0  0  0  0
   -8.7580   -2.4220    0.4970 H   0  0  0  0  0
  -12.2600   -2.0430    0.8260 H   0  0  0  0  0
   -9.5330   -0.8210   -1.7980 H   0  0  0  0  0
  1  4  1  0  0  0
  1 26  1  0  0  0
  1 27  1  0  0  0
  1 28  1  0  0  0
  2  3  2  0  0  0
  2  5  1  0  0  0
  2 29  1  0  0  0
  3  6  1  0  0  0
  3 30  1  0  0  0
  4  8  1  0  0  0
  4 31  1  0  0  0
  4 32  1  0  0  0
  5  9  1  0  0  0
  5 33  1  0  0  0
  5 34  1  0  0  0
  6 10  1  0  0  0
  6 35  1  0  0  0
  6 36  1  0  0  0
  7 21  1  0  0  0
  7 23  1  0  0  0
  7 37  1  0  0  0
  7 38  1  0  0  0
  8 11  1  0  0  0
  8 39  1  0  0  0
  8 40  1  0  0  0
  9 12  1  0  0  0
  9 41  1  0  0  0
  9 42  1  0  0  0
 10 13  1  0  0  0
 10 43  1  0  0  0
 10 44  1  0  0  0
 11 14  1  0  0  0
 11 45  1  0  0  0
 11 46  1  0  0  0
 12 14  1  0  0  0
 12 47  1  0  0  0
 12 48  1  0  0  0
 13 15  1  0  0  0
 13 49  1  0  0  0
 13 50  1  0  0  0
 14 51  1  0  0  0
 14 52  1  0  0  0
 15 16  1  0  0  0
 15 53  1  0  0  0
 15 54  1  0  0  0
 16 17  1  0  0  0
 16 55  1  0  0  0
 16 56  1  0  0  0
 17 18  1  0  0  0
 17 57  1  0  0  0
 17 58  1  0  0  0
 18 20  1  0  0  0
 18 59  1  0  0  0
 18 60  1  0  0  0
 19 21  1  0  0  0
 19 25  1  0  0  0
 19 61  1  0  0  0
 19 62  1  0  0  0
 20 22  2  0  0  0
 20 25  1  0  0  0
 21 24  1  0  0  0
 21 63  1  0  0  0
 23 64  1  0  0  0
 24 65  1  0  0  0
M  END
$$$$
