OMX
  CCTOOLS-1004241128

 25 25  0  0  1  0  0  0  0  0999 V2000
   -1.2350    1.1270   -1.2060 N   0  0  0  0  0
   -1.6080   -0.1690   -0.6230 C   0  0  0  0  0
   -3.0840   -0.1760   -0.3170 C   0  0  0  0  0
   -3.6830    0.8680   -0.2100 O   0  0  0  0  0
   -0.8180   -0.3950    0.6670 C   0  0  0  0  0
   -1.2040    0.5810    1.6380 O   0  0  0  0  0
    0.6560   -0.2660    0.3830 C   0  0  0  0  0
    1.4080   -1.3950    0.1150 C   0  0  0  0  0
    1.2530    0.9810    0.3860 C   0  0  0  0  0
    2.7600   -1.2790   -0.1460 C   0  0  0  0  0
    2.6040    1.1020    0.1250 C   0  0  0  0  0
    3.3620   -0.0290   -0.1390 C   0  0  0  0  0
    4.6920    0.0870   -0.3950 O   0  0  0  0  0
   -3.7320   -1.3410   -0.1640 O   0  0  0  0  0
   -1.6950    1.2710   -2.0920 H   0  0  0  0  0
   -1.4360    1.8820   -0.5670 H   0  0  0  0  0
   -1.3810   -0.9650   -1.3330 H   0  0  0  0  0
   -1.0280   -1.3930    1.0520 H   0  0  0  0  0
   -4.6780   -1.2950    0.0310 H   0  0  0  0  0
   -1.0450    1.4940    1.3620 H   0  0  0  0  0
    0.9390   -2.3670    0.1090 H   0  0  0  0  0
    0.6620    1.8620    0.5920 H   0  0  0  0  0
    3.3470   -2.1610   -0.3550 H   0  0  0  0  0
    3.0700    2.0760    0.1270 H   0  0  0  0  0
    4.9030    0.2090   -1.3310 H   0  0  0  0  0
  1  2  1  0  0  0
  1 15  1  0  0  0
  1 16  1  0  0  0
  2  3  1  0  0  0
  2  5  1  0  0  0
  2 17  1  0  0  0
  3  4  2  0  0  0
  3 14  1  0  0  0
  5  6  1  0  0  0
  5  7  1  0  0  0
  5 18  1  0  0  0
  6 20  1  0  0  0
  7  8  1  0  0  0
  7  9  2  0  0  0
  8 10  2  0  0  0
  8 21  1  0  0  0
  9 11  1  0  0  0
  9 22  1  0  0  0
 10 12  1  0  0  0
 10 23  1  0  0  0
 11 12  2  0  0  0
 11 24  1  0  0  0
 12 13  1  0  0  0
 13 25  1  0  0  0
 14 19  1  0  0  0
M  END
$$$$
