OMY
  CCTOOLS-1004241128

 25 25  0  0  1  0  0  0  0  0999 V2000
    2.0200    0.9810    1.3560 N   0  0  0  0  0
    2.1550   -0.2700    0.5990 C   0  0  0  0  0
   -3.9700    1.2360    0.3790 O   0  0  0  0  0
   -1.7130    1.8880    0.0040 C   0  0  0  0  0
   -2.3280   -0.4340   -0.0470 C   0  0  0  0  0
   -2.6800    0.9000    0.1140 C   0  0  0  0  0
   -0.0530    0.2140   -0.4200 C   0  0  0  0  0
   -0.4030    1.5430   -0.2660 C   0  0  0  0  0
   -1.0160   -0.7730   -0.3170 C   0  0  0  0  0
    1.3770   -0.1580   -0.7140 C   0  0  0  0  0
   -3.5360   -1.6740    0.0910 CL  0  0  0  0  0
    4.4020    0.3910    0.3430 O   0  0  0  0  0
    3.6110   -0.5210    0.3000 C   0  0  0  0  0
    1.9720    0.8480   -1.5360 O   0  0  0  0  0
    4.0280   -1.7580   -0.0140 O   0  0  0  0  0
    2.3820    1.7630    0.8310 H   0  0  0  0  0
    1.0600    1.1390    1.6250 H   0  0  0  0  0
    1.7570   -1.0960    1.1870 H   0  0  0  0  0
   -4.5050    1.3960   -0.4100 H   0  0  0  0  0
   -1.9850    2.9260    0.1240 H   0  0  0  0  0
    0.3500    2.3130   -0.3560 H   0  0  0  0  0
   -0.7420   -1.8090   -0.4470 H   0  0  0  0  0
    1.4040   -1.1150   -1.2350 H   0  0  0  0  0
    4.9710   -1.8700   -0.1970 H   0  0  0  0  0
    1.9830    1.7280   -1.1350 H   0  0  0  0  0
  1  2  1  0  0  0
  1 16  1  0  0  0
  1 17  1  0  0  0
  2 10  1  0  0  0
  2 18  1  0  0  0
  3  6  1  0  0  0
  3 19  1  0  0  0
  4  8  2  0  0  0
  4 20  1  0  0  0
  5 11  1  0  0  0
  6  4  1  0  0  0
  6  5  2  0  0  0
  7  9  2  0  0  0
  7 10  1  0  0  0
  8  7  1  0  0  0
  8 21  1  0  0  0
  9  5  1  0  0  0
  9 22  1  0  0  0
 10 14  1  0  0  0
 10 23  1  0  0  0
 13 12  2  0  0  0
 13  2  1  0  0  0
 13 15  1  0  0  0
 14 25  1  0  0  0
 15 24  1  0  0  0
M  END
$$$$
