OMZ
  CCTOOLS-1004241128

 25 25  0  0  1  0  0  0  0  0999 V2000
   -1.6070    1.4000    1.1190 N   0  0  0  0  0
   -2.1800    0.1620    0.5740 C   0  0  0  0  0
   -3.6270    0.3910    0.2210 C   0  0  0  0  0
   -4.0370    1.5150    0.0550 O   0  0  0  0  0
   -4.4590   -0.6530    0.0900 O   0  0  0  0  0
   -1.4070   -0.2480   -0.6820 C   0  0  0  0  0
   -1.9650   -1.4520   -1.2120 O   0  0  0  0  0
    0.0400   -0.4770   -0.3290 C   0  0  0  0  0
    0.9600    0.5410   -0.4950 C   0  0  0  0  0
    0.4440   -1.7050    0.1620 C   0  0  0  0  0
    2.2880    0.3330   -0.1720 C   0  0  0  0  0
    3.4430    1.6130   -0.3750 CL  0  0  0  0  0
    1.7700   -1.9180    0.4860 C   0  0  0  0  0
    2.6960   -0.8990    0.3200 C   0  0  0  0  0
    4.0020   -1.1070    0.6380 O   0  0  0  0  0
   -1.6610    2.1500    0.4460 H   0  0  0  0  0
   -2.0580    1.6570    1.9840 H   0  0  0  0  0
   -2.1090   -0.6300    1.3190 H   0  0  0  0  0
   -1.4780    0.5440   -1.4270 H   0  0  0  0  0
   -5.3780   -0.4570   -0.1370 H   0  0  0  0  0
   -1.9350   -2.2010   -0.6010 H   0  0  0  0  0
    0.6420    1.4990   -0.8780 H   0  0  0  0  0
   -0.2770   -2.4990    0.2910 H   0  0  0  0  0
    2.0850   -2.8780    0.8700 H   0  0  0  0  0
    4.2230   -0.8900    1.5540 H   0  0  0  0  0
  1  2  1  0  0  0
  1 16  1  0  0  0
  1 17  1  0  0  0
  2  3  1  0  0  0
  2  6  1  0  0  0
  2 18  1  0  0  0
  3  4  2  0  0  0
  3  5  1  0  0  0
  5 20  1  0  0  0
  6  7  1  0  0  0
  6  8  1  0  0  0
  6 19  1  0  0  0
  7 21  1  0  0  0
  8  9  2  0  0  0
  8 10  1  0  0  0
  9 11  1  0  0  0
  9 22  1  0  0  0
 10 13  2  0  0  0
 10 23  1  0  0  0
 11 14  2  0  0  0
 12 11  1  0  0  0
 13 14  1  0  0  0
 13 24  1  0  0  0
 14 15  1  0  0  0
 15 25  1  0  0  0
M  END
$$$$
