ONL
  CCTOOLS-1004241128

 21 20  0  0  1  0  0  0  0  0999 V2000
    1.1500    1.8610   -0.1310 N   0  0  0  0  0
    1.0900    0.5120    0.4480 C   0  0  0  0  0
    2.3190   -0.2620    0.0470 C   0  0  0  0  0
    2.9670    0.0890   -0.9100 O   0  0  0  0  0
    2.6920   -1.3410    0.7520 O   0  0  0  0  0
   -0.1580   -0.2080   -0.0660 C   0  0  0  0  0
   -1.4090    0.5080    0.4470 C   0  0  0  0  0
   -2.6380   -0.2010   -0.0600 C   0  0  0  0  0
   -2.5250   -1.1790   -0.7590 O   0  0  0  0  0
   -4.0080    0.3100    0.3060 C   0  0  0  0  0
    1.9300    2.3810    0.2430 H   0  0  0  0  0
    1.1920    1.8210   -1.1380 H   0  0  0  0  0
    1.0450    0.5850    1.5350 H   0  0  0  0  0
    3.4870   -1.8050    0.4560 H   0  0  0  0  0
   -0.1570   -0.2030   -1.1560 H   0  0  0  0  0
   -0.1570   -1.2380    0.2920 H   0  0  0  0  0
   -1.4100    0.5030    1.5360 H   0  0  0  0  0
   -1.4100    1.5380    0.0880 H   0  0  0  0  0
   -4.3380    1.0300   -0.4420 H   0  0  0  0  0
   -4.7090   -0.5240    0.3420 H   0  0  0  0  0
   -3.9670    0.7920    1.2820 H   0  0  0  0  0
  1  2  1  0  0  0
  1 11  1  0  0  0
  1 12  1  0  0  0
  2  3  1  0  0  0
  2  6  1  0  0  0
  2 13  1  0  0  0
  3  4  2  0  0  0
  3  5  1  0  0  0
  5 14  1  0  0  0
  6  7  1  0  0  0
  6 15  1  0  0  0
  6 16  1  0  0  0
  7  8  1  0  0  0
  7 17  1  0  0  0
  7 18  1  0  0  0
  8  9  2  0  0  0
  8 10  1  0  0  0
 10 19  1  0  0  0
 10 20  1  0  0  0
 10 21  1  0  0  0
M  END
$$$$
