OPC
  CCTOOLS-0919241028

142141  0  0  1  0  0  0  0  0999 V2000
  -19.4130    7.2210    1.2690 C   0  0  0  0  0
  -18.1530    6.5690    0.6960 C   0  0  0  0  0
  -17.9970    5.1620    1.2780 C   0  0  0  0  0
  -16.7370    4.5100    0.7060 C   0  0  0  0  0
  -16.5820    3.1030    1.2880 C   0  0  0  0  0
  -15.3220    2.4510    0.7150 C   0  0  0  0  0
  -15.1670    1.0450    1.2970 C   0  0  0  0  0
  -13.9070    0.3920    0.7250 C   0  0  0  0  0
  -13.7510   -1.0140    1.3070 C   0  0  0  0  0
  -12.5100   -1.6570    0.7430 C   0  0  0  0  0
  -11.5910   -2.1260    1.5500 C   0  0  0  0  0
  -10.3500   -2.7690    0.9860 C   0  0  0  0  0
   -9.1120   -2.0750    1.5570 C   0  0  0  0  0
   -7.8520   -2.7270    0.9850 C   0  0  0  0  0
   -6.6140   -2.0330    1.5550 C   0  0  0  0  0
   -5.3540   -2.6850    0.9830 C   0  0  0  0  0
   -4.1160   -1.9910    1.5540 C   0  0  0  0  0
   -2.8750   -2.6340    0.9900 C   0  0  0  0  0
   -2.9710   -3.5530    0.2110 O   0  0  0  0  0
   -1.6630   -2.1850    1.3530 O   0  0  0  0  0
   -0.4670   -2.8050    0.8100 C   0  0  0  0  0
   -0.4700   -2.6700   -0.7140 C   0  0  0  0  0
   -0.3760   -1.2890   -1.0700 O   0  0  0  0  0
   -0.3850   -1.2210   -2.6790 P   0  0  0  0  0
   -1.8050   -1.7420   -3.2300 O   0  0  0  0  0
    0.6970   -2.0790   -3.2150 O   0  0  0  0  0
   -0.1490    0.2990   -3.1540 O   0  0  0  0  0
   -0.0490    0.2760   -4.5790 C   0  0  0  0  0
    0.1770    1.6970   -5.0980 C   0  0  0  0  0
    1.5060    2.1650   -4.6830 N   0  3  0  0  0
    2.5350    1.2890   -5.2600 C   0  0  0  0  0
    1.7120    3.5400   -5.1560 C   0  0  0  0  0
    1.6020    2.1320   -3.2170 C   0  0  0  0  0
   -0.4420   -4.2860    1.1900 C   0  0  0  0  0
    0.7710   -2.1100    1.3810 C   0  0  0  0  0
    1.9670   -2.7300    0.8370 O   0  0  0  0  0
    3.1790   -2.2810    1.2000 C   0  0  0  0  0
    3.2750   -1.3620    1.9790 O   0  0  0  0  0
    4.4200   -2.9240    0.6360 C   0  0  0  0  0
    5.6580   -2.2300    1.2070 C   0  0  0  0  0
    6.9180   -2.8820    0.6350 C   0  0  0  0  0
    8.1560   -2.1880    1.2060 C   0  0  0  0  0
    9.4160   -2.8400    0.6330 C   0  0  0  0  0
   10.6540   -2.1460    1.2040 C   0  0  0  0  0
   11.8950   -2.7890    0.6400 C   0  0  0  0  0
   12.8080   -2.0510    0.0570 C   0  0  0  0  0
   12.7150   -0.5490    0.1190 C   0  0  0  0  0
   14.0380    0.0240    0.6330 C   0  0  0  0  0
   13.9430    1.5490    0.6960 C   0  0  0  0  0
   15.2660    2.1210    1.2090 C   0  0  0  0  0
   15.1720    3.6470    1.2720 C   0  0  0  0  0
   16.4950    4.2190    1.7850 C   0  0  0  0  0
   16.4000    5.7450    1.8480 C   0  0  0  0  0
   17.7230    6.3170    2.3610 C   0  0  0  0  0
   17.6290    7.8430    2.4250 C   0  0  0  0  0
  -20.2840    6.6210    1.0060 H   0  0  0  0  0
  -19.3280    7.2840    2.3540 H   0  0  0  0  0
  -19.5240    8.2230    0.8540 H   0  0  0  0  0
  -17.2820    7.1690    0.9590 H   0  0  0  0  0
  -18.2370    6.5060   -0.3890 H   0  0  0  0  0
  -18.8690    4.5620    1.0160 H   0  0  0  0  0
  -17.9130    5.2250    2.3630 H   0  0  0  0  0
  -15.8660    5.1100    0.9680 H   0  0  0  0  0
  -16.8220    4.4470   -0.3790 H   0  0  0  0  0
  -17.4530    2.5030    1.0250 H   0  0  0  0  0
  -16.4980    3.1660    2.3730 H   0  0  0  0  0
  -14.4510    3.0510    0.9780 H   0  0  0  0  0
  -15.4060    2.3880   -0.3700 H   0  0  0  0  0
  -16.0380    0.4440    1.0350 H   0  0  0  0  0
  -15.0820    1.1080    2.3820 H   0  0  0  0  0
  -13.0350    0.9920    0.9870 H   0  0  0  0  0
  -13.9910    0.3290   -0.3600 H   0  0  0  0  0
  -14.6220   -1.6140    1.0440 H   0  0  0  0  0
  -13.6670   -0.9510    2.3920 H   0  0  0  0  0
  -12.3780   -1.7300   -0.3270 H   0  0  0  0  0
  -11.7230   -2.0530    2.6190 H   0  0  0  0  0
  -10.3520   -2.6730   -0.1000 H   0  0  0  0  0
  -10.3320   -3.8250    1.2570 H   0  0  0  0  0
   -9.1100   -2.1710    2.6430 H   0  0  0  0  0
   -9.1300   -1.0190    1.2860 H   0  0  0  0  0
   -7.8540   -2.6310   -0.1010 H   0  0  0  0  0
   -7.8340   -3.7830    1.2560 H   0  0  0  0  0
   -6.6120   -2.1290    2.6410 H   0  0  0  0  0
   -6.6320   -0.9770    1.2840 H   0  0  0  0  0
   -5.3560   -2.5890   -0.1030 H   0  0  0  0  0
   -5.3360   -3.7410    1.2540 H   0  0  0  0  0
   -4.1130   -2.0880    2.6400 H   0  0  0  0  0
   -4.1340   -0.9360    1.2830 H   0  0  0  0  0
    0.3810   -3.2100   -1.1290 H   0  0  0  0  0
   -1.3950   -3.0860   -1.1140 H   0  0  0  0  0
   -2.4800   -1.1580   -2.8590 H   0  0  0  0  0
    0.7890   -0.3560   -4.8740 H   0  0  0  0  0
   -0.9710   -0.1230   -5.0010 H   0  0  0  0  0
    0.1130    1.7020   -6.1860 H   0  0  0  0  0
   -0.5860    2.3590   -4.6870 H   0  0  0  0  0
    2.4640    1.3140   -6.3480 H   0  0  0  0  0
    3.5210    1.6360   -4.9530 H   0  0  0  0  0
    2.3830    0.2690   -4.9090 H   0  0  0  0  0
    0.9480    4.1890   -4.7280 H   0  0  0  0  0
    2.6980    3.8870   -4.8480 H   0  0  0  0  0
    1.6410    3.5640   -6.2440 H   0  0  0  0  0
    1.6280    1.0960   -2.8780 H   0  0  0  0  0
    2.5120    2.6410   -2.9010 H   0  0  0  0  0
    0.7360    2.6340   -2.7850 H   0  0  0  0  0
   -0.4400   -4.3830    2.2760 H   0  0  0  0  0
   -1.3240   -4.7810    0.7830 H   0  0  0  0  0
    0.4560   -4.7510    0.7820 H   0  0  0  0  0
    0.7740   -2.2070    2.4660 H   0  0  0  0  0
    0.7530   -1.0550    1.1090 H   0  0  0  0  0
    4.4180   -2.8280   -0.4500 H   0  0  0  0  0
    4.4380   -3.9790    0.9070 H   0  0  0  0  0
    5.6600   -2.3260    2.2930 H   0  0  0  0  0
    5.6400   -1.1740    0.9360 H   0  0  0  0  0
    6.9160   -2.7860   -0.4510 H   0  0  0  0  0
    6.9360   -3.9380    0.9060 H   0  0  0  0  0
    8.1590   -2.2840    2.2910 H   0  0  0  0  0
    8.1390   -1.1320    0.9340 H   0  0  0  0  0
    9.4140   -2.7440   -0.4530 H   0  0  0  0  0
    9.4340   -3.8960    0.9040 H   0  0  0  0  0
   10.6570   -2.2420    2.2900 H   0  0  0  0  0
   10.6370   -1.0910    0.9330 H   0  0  0  0  0
   12.0330   -3.8570    0.7170 H   0  0  0  0  0
   13.6270   -2.5200   -0.4680 H   0  0  0  0  0
   11.9090   -0.2620    0.7950 H   0  0  0  0  0
   12.5110   -0.1560   -0.8770 H   0  0  0  0  0
   14.8440   -0.2630   -0.0430 H   0  0  0  0  0
   14.2410   -0.3690    1.6290 H   0  0  0  0  0
   13.1370    1.8360    1.3710 H   0  0  0  0  0
   13.7390    1.9420   -0.3000 H   0  0  0  0  0
   16.0720    1.8350    0.5330 H   0  0  0  0  0
   15.4700    1.7290    2.2050 H   0  0  0  0  0
   14.3660    3.9340    1.9470 H   0  0  0  0  0
   14.9680    4.0400    0.2760 H   0  0  0  0  0
   17.3010    3.9330    1.1100 H   0  0  0  0  0
   16.6980    3.8260    2.7810 H   0  0  0  0  0
   15.5940    6.0320    2.5240 H   0  0  0  0  0
   16.1960    6.1380    0.8520 H   0  0  0  0  0
   18.5290    6.0310    1.6860 H   0  0  0  0  0
   17.9270    5.9240    3.3580 H   0  0  0  0  0
   18.5710    8.2510    2.7900 H   0  0  0  0  0
   17.4250    8.2360    1.4290 H   0  0  0  0  0
   16.8230    8.1300    3.1000 H   0  0  0  0  0
  1  2  1  0  0  0
  1 56  1  0  0  0
  1 57  1  0  0  0
  1 58  1  0  0  0
  2  3  1  0  0  0
  2 59  1  0  0  0
  2 60  1  0  0  0
  3  4  1  0  0  0
  3 61  1  0  0  0
  3 62  1  0  0  0
  4  5  1  0  0  0
  4 63  1  0  0  0
  4 64  1  0  0  0
  5  6  1  0  0  0
  5 65  1  0  0  0
  5 66  1  0  0  0
  6  7  1  0  0  0
  6 67  1  0  0  0
  6 68  1  0  0  0
  7  8  1  0  0  0
  7 69  1  0  0  0
  7 70  1  0  0  0
  8  9  1  0  0  0
  8 71  1  0  0  0
  8 72  1  0  0  0
  9 10  1  0  0  0
  9 73  1  0  0  0
  9 74  1  0  0  0
 10 11  2  0  0  0
 10 75  1  0  0  0
 11 12  1  0  0  0
 11 76  1  0  0  0
 12 13  1  0  0  0
 12 77  1  0  0  0
 12 78  1  0  0  0
 13 14  1  0  0  0
 13 79  1  0  0  0
 13 80  1  0  0  0
 14 15  1  0  0  0
 14 81  1  0  0  0
 14 82  1  0  0  0
 15 16  1  0  0  0
 15 83  1  0  0  0
 15 84  1  0  0  0
 16 17  1  0  0  0
 16 85  1  0  0  0
 16 86  1  0  0  0
 17 18  1  0  0  0
 17 87  1  0  0  0
 17 88  1  0  0  0
 18 19  2  0  0  0
 18 20  1  0  0  0
 20 21  1  0  0  0
 21 22  1  0  0  0
 21 34  1  0  0  0
 21 35  1  0  0  0
 22 23  1  0  0  0
 22 89  1  0  0  0
 22 90  1  0  0  0
 23 24  1  0  0  0
 24 25  1  0  0  0
 24 26  2  0  0  0
 24 27  1  0  0  0
 25 91  1  0  0  0
 27 28  1  0  0  0
 28 29  1  0  0  0
 28 92  1  0  0  0
 28 93  1  0  0  0
 29 30  1  0  0  0
 29 94  1  0  0  0
 29 95  1  0  0  0
 30 31  1  0  0  0
 30 32  1  0  0  0
 30 33  1  0  0  0
 31 96  1  0  0  0
 31 97  1  0  0  0
 31 98  1  0  0  0
 32 99  1  0  0  0
 32100  1  0  0  0
 32101  1  0  0  0
 33102  1  0  0  0
 33103  1  0  0  0
 33104  1  0  0  0
 34105  1  0  0  0
 34106  1  0  0  0
 34107  1  0  0  0
 35 36  1  0  0  0
 35108  1  0  0  0
 35109  1  0  0  0
 36 37  1  0  0  0
 37 38  2  0  0  0
 37 39  1  0  0  0
 39 40  1  0  0  0
 39110  1  0  0  0
 39111  1  0  0  0
 40 41  1  0  0  0
 40112  1  0  0  0
 40113  1  0  0  0
 41 42  1  0  0  0
 41114  1  0  0  0
 41115  1  0  0  0
 42 43  1  0  0  0
 42116  1  0  0  0
 42117  1  0  0  0
 43 44  1  0  0  0
 43118  1  0  0  0
 43119  1  0  0  0
 44 45  1  0  0  0
 44120  1  0  0  0
 44121  1  0  0  0
 45 46  2  0  0  0
 45122  1  0  0  0
 46 47  1  0  0  0
 46123  1  0  0  0
 47 48  1  0  0  0
 47124  1  0  0  0
 47125  1  0  0  0
 48 49  1  0  0  0
 48126  1  0  0  0
 48127  1  0  0  0
 49 50  1  0  0  0
 49128  1  0  0  0
 49129  1  0  0  0
 50 51  1  0  0  0
 50130  1  0  0  0
 50131  1  0  0  0
 51 52  1  0  0  0
 51132  1  0  0  0
 51133  1  0  0  0
 52 53  1  0  0  0
 52134  1  0  0  0
 52135  1  0  0  0
 53 54  1  0  0  0
 53136  1  0  0  0
 53137  1  0  0  0
 54 55  1  0  0  0
 54138  1  0  0  0
 54139  1  0  0  0
 55140  1  0  0  0
 55141  1  0  0  0
 55142  1  0  0  0
M  CHG  1  30   1
M  END
$$$$
