ORD
  CCTOOLS-1004241129

 21 20  0  0  1  0  0  0  0  0999 V2000
   -0.7580    1.7740    0.2740 N   0  0  0  0  0
   -0.7820    0.3210    0.4880 C   0  0  0  0  0
    0.3680   -0.3270   -0.2860 C   0  0  0  0  0
    1.7030    0.1460    0.2940 C   0  0  0  0  0
    2.8530   -0.5020   -0.4790 C   0  0  0  0  0
    4.1350   -0.0490    0.0780 N   0  0  0  0  0
   -2.7620    0.3920   -0.7870 O   0  0  0  0  0
   -2.5180   -1.4340    0.4350 O   0  0  0  0  0
   -2.0930   -0.2370   -0.0020 C   0  0  0  0  0
   -0.8600    1.9970   -0.7050 H   0  0  0  0  0
   -1.4680    2.2320    0.8250 H   0  0  0  0  0
   -0.6700    0.1080    1.5510 H   0  0  0  0  0
    0.2990   -1.4110   -0.2000 H   0  0  0  0  0
    0.3070   -0.0410   -1.3360 H   0  0  0  0  0
    1.7730    1.2300    0.2080 H   0  0  0  0  0
    1.7650   -0.1400    1.3440 H   0  0  0  0  0
    2.7830   -1.5870   -0.3930 H   0  0  0  0  0
    2.7920   -0.2170   -1.5290 H   0  0  0  0  0
    4.1890   -0.2450    1.0660 H   0  0  0  0  0
    4.9110   -0.4630   -0.4160 H   0  0  0  0  0
   -3.3650   -1.7500    0.0930 H   0  0  0  0  0
  1  2  1  0  0  0
  1 10  1  0  0  0
  1 11  1  0  0  0
  2  3  1  0  0  0
  2  9  1  0  0  0
  2 12  1  0  0  0
  3  4  1  0  0  0
  3 13  1  0  0  0
  3 14  1  0  0  0
  4  5  1  0  0  0
  4 15  1  0  0  0
  4 16  1  0  0  0
  5  6  1  0  0  0
  5 17  1  0  0  0
  5 18  1  0  0  0
  6 19  1  0  0  0
  6 20  1  0  0  0
  8 21  1  0  0  0
  9  7  2  0  0  0
  9  8  1  0  0  0
M  END
$$$$
