ORN
  CCTOOLS-1004241129

 21 20  0  0  1  0  0  0  0  0999 V2000
    0.7470    1.7750    0.2810 N   0  0  0  0  0
    0.7910    0.3220    0.4930 C   0  0  0  0  0
   -0.3530   -0.3400   -0.2750 C   0  0  0  0  0
   -1.6920    0.1140    0.3100 C   0  0  0  0  0
   -2.8360   -0.5490   -0.4590 C   0  0  0  0  0
   -4.1210   -0.1130    0.1040 N   0  0  0  0  0
    2.1080   -0.2180   -0.0010 C   0  0  0  0  0
    2.7660    0.4210   -0.7890 O   0  0  0  0  0
    2.5510   -1.4080    0.4330 O   0  0  0  0  0
    0.8420    2.0000   -0.6980 H   0  0  0  0  0
   -0.0990    2.1710    0.6630 H   0  0  0  0  0
    0.6870    0.1080    1.5570 H   0  0  0  0  0
   -0.3000   -0.0530   -1.3260 H   0  0  0  0  0
   -0.2690   -1.4240   -0.1910 H   0  0  0  0  0
   -1.7450   -0.1740    1.3600 H   0  0  0  0  0
   -1.7760    1.1970    0.2250 H   0  0  0  0  0
   -2.7830   -0.2620   -1.5090 H   0  0  0  0  0
   -2.7510   -1.6330   -0.3740 H   0  0  0  0  0
   -4.1970    0.8930    0.0950 H   0  0  0  0  0
   -4.8940   -0.5370   -0.3870 H   0  0  0  0  0
    3.4010   -1.7130    0.0870 H   0  0  0  0  0
  1  2  1  0  0  0
  1 10  1  0  0  0
  1 11  1  0  0  0
  2  3  1  0  0  0
  2  7  1  0  0  0
  2 12  1  0  0  0
  3  4  1  0  0  0
  3 13  1  0  0  0
  3 14  1  0  0  0
  4  5  1  0  0  0
  4 15  1  0  0  0
  4 16  1  0  0  0
  5  6  1  0  0  0
  5 17  1  0  0  0
  5 18  1  0  0  0
  6 19  1  0  0  0
  6 20  1  0  0  0
  7  8  2  0  0  0
  7  9  1  0  0  0
  9 21  1  0  0  0
M  END
$$$$
