ORX
  CCTOOLS-1004241129

 46 46  0  0  1  0  0  0  0  0999 V2000
   -2.8820    0.4080   -0.1740 O   0  0  0  0  0
   -2.8360   -0.5560   -1.1060 C   0  0  0  0  0
   -3.6920   -1.4080   -1.1370 O   0  0  0  0  0
   -1.7160   -0.5760   -2.1140 C   0  0  0  0  0
   -0.5080    0.0080   -1.5160 N   0  0  0  0  0
    0.2270   -1.0950   -0.8860 C   0  0  0  0  0
    1.4850   -0.5610   -0.2500 C   0  0  0  0  0
    1.4850   -0.1260    1.0640 C   0  0  0  0  0
    2.6570    0.3570    1.6150 C   0  0  0  0  0
    3.7680    0.4070    0.9070 N   0  0  0  0  0
    3.8100    0.0020   -0.3470 C   0  0  0  0  0
    2.6730   -0.4890   -0.9700 C   0  0  0  0  0
    2.7210   -0.9050   -2.2630 O   0  0  0  0  0
    5.1060    0.0810   -1.1120 C   0  0  0  0  0
    0.2220   -0.1780    1.8850 C   0  0  0  0  0
    0.4840    0.3240    3.1960 O   0  0  0  0  0
   -0.9000    0.2400    4.0130 P   0  0  0  0  0
   -1.3530   -1.1670    4.0710 O   0  0  0  0  0
   -0.6750    0.7930    5.5080 O   0  0  0  0  0
   -2.0150    1.1330    3.2720 O   0  0  0  0  0
   -2.1220    0.2380   -3.3440 C   0  0  0  0  0
   -0.9840    0.2170   -4.3680 C   0  0  0  0  0
   -1.3900    1.0320   -5.5970 C   0  0  0  0  0
   -0.2990    1.0120   -6.5800 N   0  0  0  0  0
   -3.6010    0.4200    0.4720 H   0  0  0  0  0
   -1.5120   -1.6050   -2.4110 H   0  0  0  0  0
   -0.8180    0.6130   -0.7700 H   0  0  0  0  0
    0.4890   -1.8350   -1.6420 H   0  0  0  0  0
   -0.3960   -1.5600   -0.1230 H   0  0  0  0  0
    2.6630    0.6980    2.6400 H   0  0  0  0  0
    2.5090   -0.1370   -2.8120 H   0  0  0  0  0
    5.6610   -0.8470   -0.9830 H   0  0  0  0  0
    4.8940    0.2330   -2.1710 H   0  0  0  0  0
    5.6990    0.9150   -0.7370 H   0  0  0  0  0
   -0.5450    0.4320    1.4090 H   0  0  0  0  0
   -0.1240   -1.2090    1.9530 H   0  0  0  0  0
   -1.5270    0.7250    5.9620 H   0  0  0  0  0
   -1.6810    2.0400    3.2550 H   0  0  0  0  0
   -2.3250    1.2670   -3.0480 H   0  0  0  0  0
   -3.0180   -0.1960   -3.7880 H   0  0  0  0  0
   -0.7810   -0.8110   -4.6640 H   0  0  0  0  0
   -0.0880    0.6510   -3.9240 H   0  0  0  0  0
   -1.5940    2.0610   -5.3010 H   0  0  0  0  0
   -2.2860    0.5980   -6.0410 H   0  0  0  0  0
   -0.6090    1.5590   -7.3690 H   0  0  0  0  0
    0.4720    1.5130   -6.1660 H   0  0  0  0  0
  1  2  1  0  0  0
  1 25  1  0  0  0
  2  3  2  0  0  0
  2  4  1  0  0  0
  4  5  1  0  0  0
  4 21  1  0  0  0
  4 26  1  0  0  0
  5  6  1  0  0  0
  5 27  1  0  0  0
  6  7  1  0  0  0
  6 28  1  0  0  0
  6 29  1  0  0  0
  7  8  2  0  0  0
  7 12  1  0  0  0
  8  9  1  0  0  0
  8 15  1  0  0  0
  9 10  2  0  0  0
  9 30  1  0  0  0
 10 11  1  0  0  0
 11 12  2  0  0  0
 11 14  1  0  0  0
 12 13  1  0  0  0
 13 31  1  0  0  0
 14 32  1  0  0  0
 14 33  1  0  0  0
 14 34  1  0  0  0
 15 16  1  0  0  0
 15 35  1  0  0  0
 15 36  1  0  0  0
 16 17  1  0  0  0
 17 18  2  0  0  0
 17 19  1  0  0  0
 17 20  1  0  0  0
 19 37  1  0  0  0
 20 38  1  0  0  0
 21 22  1  0  0  0
 21 39  1  0  0  0
 21 40  1  0  0  0
 22 23  1  0  0  0
 22 41  1  0  0  0
 22 42  1  0  0  0
 23 24  1  0  0  0
 23 43  1  0  0  0
 23 44  1  0  0  0
 24 45  1  0  0  0
 24 46  1  0  0  0
M  END
$$$$
