OZ2
  CCTOOLS-0919241029

117116  0  0  1  0  0  0  0  0999 V2000
    1.5390    0.8440    2.6930 P   0  0  0  0  0
   -0.0350   -3.0500    0.8870 C   0  0  0  0  0
   -0.1840   -4.2200    1.1510 O   0  0  0  0  0
   -1.1910   -2.2470    0.3480 C   0  0  0  0  0
   -2.4250   -3.1430    0.2320 C   0  0  0  0  0
   -3.5980   -2.3270   -0.3160 C   0  0  0  0  0
   -4.8320   -3.2240   -0.4320 C   0  0  0  0  0
   -6.0050   -2.4080   -0.9790 C   0  0  0  0  0
   -7.2400   -3.3040   -1.0960 C   0  0  0  0  0
   -8.4130   -2.4890   -1.6430 C   0  0  0  0  0
   -9.6280   -3.3720   -1.7580 C   0  0  0  0  0
  -10.7610   -3.0010   -1.2140 C   0  0  0  0  0
  -10.8960   -1.6210   -0.6220 C   0  0  0  0  0
  -12.1120   -0.9220   -1.2330 C   0  0  0  0  0
  -12.2500    0.4790   -0.6320 C   0  0  0  0  0
  -13.4660    1.1790   -1.2430 C   0  0  0  0  0
  -13.6030    2.5790   -0.6430 C   0  0  0  0  0
  -14.8190    3.2790   -1.2540 C   0  0  0  0  0
  -14.9570    4.6790   -0.6530 C   0  0  0  0  0
  -16.1720    5.3790   -1.2640 C   0  0  0  0  0
    5.2740   -1.8700    0.2640 C   0  0  0  0  0
    6.0280   -2.0670    1.1880 O   0  0  0  0  0
    2.2260   -3.3010    1.5960 C   0  0  0  0  0
    1.1590   -2.4670    1.0740 O   0  0  0  0  0
    5.8170   -1.4300   -1.0710 C   0  0  0  0  0
    3.5010   -2.4680    1.7410 C   0  0  0  0  0
    3.9530   -2.0430    0.4280 O   0  0  0  0  0
    7.3400   -1.3100   -0.9870 C   0  0  0  0  0
    3.2110   -1.2380    2.6030 C   0  0  0  0  0
    2.1160   -0.5110    2.0430 O   0  0  0  0  0
    7.8920   -0.8630   -2.3430 C   0  0  0  0  0
    9.4150   -0.7430   -2.2590 C   0  0  0  0  0
    9.9580   -0.3030   -3.5950 C   0  0  0  0  0
   10.7550    0.7340   -3.6680 C   0  0  0  0  0
   11.2650    1.3820   -2.4070 C   0  0  0  0  0
   12.7920    1.4620   -2.4570 C   0  0  0  0  0
   13.3110    2.1210   -1.1770 C   0  0  0  0  0
   14.8380    2.2000   -1.2260 C   0  0  0  0  0
   15.3560    2.8590    0.0540 C   0  0  0  0  0
   16.8830    2.9380    0.0040 C   0  0  0  0  0
   -0.2330    2.7140    1.9820 C   0  0  0  0  0
   -1.2590    2.9940    0.8830 C   0  0  0  0  0
   -2.3060    2.0240    0.9500 O   0  0  0  0  0
   -1.8480    4.3930    1.0790 C   0  0  0  0  0
   -2.7190    4.7000   -0.0110 O   0  0  0  0  0
    2.6360    1.8250    2.8460 O   0  0  0  0  0
    0.9050    0.5180    4.1370 O   0  0  0  0  0
    0.4010    1.4570    1.7340 O   0  0  0  0  0
   -1.4050   -1.4190    1.0250 H   0  0  0  0  0
   -0.9320   -1.8540   -0.6360 H   0  0  0  0  0
   -2.2110   -3.9700   -0.4450 H   0  0  0  0  0
   -2.6830   -3.5360    1.2150 H   0  0  0  0  0
   -3.8120   -1.5000    0.3610 H   0  0  0  0  0
   -3.3400   -1.9350   -1.2990 H   0  0  0  0  0
   -4.6180   -4.0510   -1.1090 H   0  0  0  0  0
   -5.0900   -3.6160    0.5520 H   0  0  0  0  0
   -6.2190   -1.5810   -0.3030 H   0  0  0  0  0
   -5.7470   -2.0160   -1.9630 H   0  0  0  0  0
   -7.0250   -4.1320   -1.7720 H   0  0  0  0  0
   -7.4980   -3.6970   -0.1120 H   0  0  0  0  0
   -8.6270   -1.6610   -0.9670 H   0  0  0  0  0
   -8.1550   -2.0960   -2.6270 H   0  0  0  0  0
   -9.5660   -4.3100   -2.2890 H   0  0  0  0  0
  -11.5970   -3.6840   -1.1890 H   0  0  0  0  0
  -11.0270   -1.7000    0.4570 H   0  0  0  0  0
   -9.9980   -1.0430   -0.8380 H   0  0  0  0  0
  -11.9820   -0.8430   -2.3120 H   0  0  0  0  0
  -13.0110   -1.5000   -1.0170 H   0  0  0  0  0
  -12.3800    0.4000    0.4470 H   0  0  0  0  0
  -11.3510    1.0570   -0.8480 H   0  0  0  0  0
  -13.3350    1.2570   -2.3230 H   0  0  0  0  0
  -14.3640    0.6000   -1.0270 H   0  0  0  0  0
  -13.7340    2.5000    0.4370 H   0  0  0  0  0
  -12.7050    3.1570   -0.8590 H   0  0  0  0  0
  -14.6880    3.3570   -2.3330 H   0  0  0  0  0
  -15.7170    2.7010   -1.0380 H   0  0  0  0  0
  -15.0870    4.6000    0.4260 H   0  0  0  0  0
  -14.0580    5.2570   -0.8690 H   0  0  0  0  0
  -16.0420    5.4580   -2.3430 H   0  0  0  0  0
  -17.0710    4.8010   -1.0480 H   0  0  0  0  0
  -16.2710    6.3760   -0.8360 H   0  0  0  0  0
    1.9360   -3.6940    2.5710 H   0  0  0  0  0
    2.4090   -4.1290    0.9110 H   0  0  0  0  0
    5.5520   -2.1650   -1.8310 H   0  0  0  0  0
    5.3900   -0.4630   -1.3360 H   0  0  0  0  0
    4.2770   -3.0690    2.2150 H   0  0  0  0  0
    7.6060   -0.5750   -0.2270 H   0  0  0  0  0
    7.7670   -2.2770   -0.7220 H   0  0  0  0  0
    2.9580   -1.5550    3.6150 H   0  0  0  0  0
    4.0940   -0.5990    2.6330 H   0  0  0  0  0
    7.6260   -1.5980   -3.1030 H   0  0  0  0  0
    7.4650    0.1040   -2.6080 H   0  0  0  0  0
    9.6800   -0.0080   -1.4990 H   0  0  0  0  0
    9.8420   -1.7100   -1.9940 H   0  0  0  0  0
    9.6890   -0.8430   -4.4910 H   0  0  0  0  0
   11.0470    1.1230   -4.6320 H   0  0  0  0  0
   10.8520    2.3870   -2.3230 H   0  0  0  0  0
   10.9600    0.7900   -1.5440 H   0  0  0  0  0
   13.2060    0.4570   -2.5410 H   0  0  0  0  0
   13.0980    2.0540   -3.3190 H   0  0  0  0  0
   12.8970    3.1260   -1.0920 H   0  0  0  0  0
   13.0050    1.5280   -0.3140 H   0  0  0  0  0
   15.2510    1.1950   -1.3110 H   0  0  0  0  0
   15.1430    2.7930   -2.0890 H   0  0  0  0  0
   14.9420    3.8640    0.1380 H   0  0  0  0  0
   15.0500    2.2670    0.9170 H   0  0  0  0  0
   17.2960    1.9340   -0.0800 H   0  0  0  0  0
   17.1880    3.5310   -0.8580 H   0  0  0  0  0
   17.2520    3.4080    0.9160 H   0  0  0  0  0
    0.5180    3.5040    1.9890 H   0  0  0  0  0
   -0.7350    2.6830    2.9490 H   0  0  0  0  0
   -0.7730    2.9380   -0.0910 H   0  0  0  0  0
   -2.7830    2.0170    1.7910 H   0  0  0  0  0
   -2.4090    4.4230    2.0130 H   0  0  0  0  0
   -1.0410    5.1250    1.1170 H   0  0  0  0  0
   -3.1280    5.5740    0.0470 H   0  0  0  0  0
    0.1780   -0.1190    4.1130 H   0  0  0  0  0
  1 48  1  0  0  0
  1 47  1  0  0  0
  1 30  1  0  0  0
  2  3  2  0  0  0
  4  2  1  0  0  0
  4 49  1  0  0  0
  4 50  1  0  0  0
  5  4  1  0  0  0
  5  6  1  0  0  0
  5 51  1  0  0  0
  5 52  1  0  0  0
  6 53  1  0  0  0
  6 54  1  0  0  0
  7  6  1  0  0  0
  7  8  1  0  0  0
  7 55  1  0  0  0
  7 56  1  0  0  0
  8 57  1  0  0  0
  8 58  1  0  0  0
  9  8  1  0  0  0
  9 10  1  0  0  0
  9 59  1  0  0  0
  9 60  1  0  0  0
 10 61  1  0  0  0
 10 62  1  0  0  0
 11 10  1  0  0  0
 11 12  2  0  0  0
 11 63  1  0  0  0
 12 13  1  0  0  0
 12 64  1  0  0  0
 13 14  1  0  0  0
 13 65  1  0  0  0
 13 66  1  0  0  0
 14 67  1  0  0  0
 14 68  1  0  0  0
 15 14  1  0  0  0
 15 16  1  0  0  0
 15 69  1  0  0  0
 15 70  1  0  0  0
 16 71  1  0  0  0
 16 72  1  0  0  0
 17 16  1  0  0  0
 17 18  1  0  0  0
 17 73  1  0  0  0
 17 74  1  0  0  0
 18 19  1  0  0  0
 18 75  1  0  0  0
 18 76  1  0  0  0
 19 20  1  0  0  0
 19 77  1  0  0  0
 19 78  1  0  0  0
 20 79  1  0  0  0
 20 80  1  0  0  0
 20 81  1  0  0  0
 21 22  2  0  0  0
 21 25  1  0  0  0
 23 26  1  0  0  0
 23 82  1  0  0  0
 23 83  1  0  0  0
 24  2  1  0  0  0
 24 23  1  0  0  0
 25 84  1  0  0  0
 25 85  1  0  0  0
 26 29  1  0  0  0
 26 27  1  0  0  0
 26 86  1  0  0  0
 27 21  1  0  0  0
 28 25  1  0  0  0
 28 31  1  0  0  0
 28 87  1  0  0  0
 28 88  1  0  0  0
 29 89  1  0  0  0
 29 90  1  0  0  0
 30 29  1  0  0  0
 31 91  1  0  0  0
 31 92  1  0  0  0
 32 31  1  0  0  0
 32 33  1  0  0  0
 32 93  1  0  0  0
 32 94  1  0  0  0
 33 34  2  0  0  0
 33 95  1  0  0  0
 34 96  1  0  0  0
 35 34  1  0  0  0
 35 36  1  0  0  0
 35 97  1  0  0  0
 35 98  1  0  0  0
 36 37  1  0  0  0
 36 99  1  0  0  0
 36100  1  0  0  0
 37 38  1  0  0  0
 37101  1  0  0  0
 37102  1  0  0  0
 38 39  1  0  0  0
 38103  1  0  0  0
 38104  1  0  0  0
 39 40  1  0  0  0
 39105  1  0  0  0
 39106  1  0  0  0
 40107  1  0  0  0
 40108  1  0  0  0
 40109  1  0  0  0
 41 48  1  0  0  0
 41110  1  0  0  0
 41111  1  0  0  0
 42 41  1  0  0  0
 42112  1  0  0  0
 43 42  1  0  0  0
 43113  1  0  0  0
 44 42  1  0  0  0
 44 45  1  0  0  0
 44114  1  0  0  0
 44115  1  0  0  0
 45116  1  0  0  0
 46  1  2  0  0  0
 47117  1  0  0  0
M  END
$$$$
