P01
  CCTOOLS-0919241029

 52 54  0  0  1  0  0  0  0  0999 V2000
    5.5320   -2.7080   -0.7480 CL  0  0  0  0  0
    4.2250   -1.8510    0.0070 C   0  0  0  0  0
    2.9260   -2.2990   -0.1460 C   0  0  0  0  0
    1.8810   -1.6100    0.4540 C   0  0  0  0  0
    2.1450   -0.4780    1.2150 C   0  0  0  0  0
    3.4450   -0.0390    1.3700 C   0  0  0  0  0
    4.4840   -0.7240    0.7670 C   0  0  0  0  0
    0.5650   -2.0560    0.2960 N   0  0  0  0  0
   -0.4650   -1.1410    0.1650 C   0  0  0  0  0
   -1.8040   -1.5680    0.1250 C   0  0  0  0  0
   -2.4200   -2.7740    0.1880 N   0  0  0  0  0
   -2.8090   -0.5960   -0.0090 C   0  0  0  0  0
   -3.9980   -1.2810   -0.0200 N   0  0  0  0  0
   -5.3350   -0.6940   -0.1410 C   0  0  0  0  0
   -6.0240   -1.2480   -1.3900 C   0  0  0  0  0
   -6.1620   -1.0490    1.0970 C   0  0  0  0  0
   -3.7070   -2.6080    0.1030 C   0  0  0  0  0
   -2.4650    0.6850   -0.0880 N   0  0  0  0  0
   -1.1920    1.0440   -0.0510 C   0  0  0  0  0
   -0.2110    0.1600    0.0740 N   0  0  0  0  0
   -0.8730    2.3890   -0.1420 N   0  0  0  0  0
    0.5280    2.8140   -0.0980 C   0  0  0  0  0
    0.6080    4.2570    0.4030 C   0  0  0  0  0
    0.0050    4.3440    1.8060 C   0  0  0  0  0
    2.0710    4.7010    0.4490 C   0  0  0  0  0
    1.1320    2.7270   -1.5010 C   0  0  0  0  0
    0.4790    3.6640   -2.3590 O   0  0  0  0  0
    2.7240   -3.1790   -0.7390 H   0  0  0  0  0
    1.3340    0.0580    1.6860 H   0  0  0  0  0
    3.6510    0.8410    1.9610 H   0  0  0  0  0
    5.5000   -0.3790    0.8890 H   0  0  0  0  0
    0.3750   -3.0070    0.2790 H   0  0  0  0  0
   -5.2500    0.3890   -0.2230 H   0  0  0  0  0
   -6.1090   -2.3310   -1.3080 H   0  0  0  0  0
   -7.0190   -0.8110   -1.4800 H   0  0  0  0  0
   -5.4350   -0.9950   -2.2720 H   0  0  0  0  0
   -7.1560   -0.6120    1.0070 H   0  0  0  0  0
   -6.2460   -2.1320    1.1790 H   0  0  0  0  0
   -5.6710   -0.6540    1.9870 H   0  0  0  0  0
   -4.4380   -3.4030    0.1260 H   0  0  0  0  0
   -1.5770    3.0490   -0.2340 H   0  0  0  0  0
    1.0840    2.1630    0.5780 H   0  0  0  0  0
    0.0520    4.9070   -0.2720 H   0  0  0  0  0
    0.0620    5.3720    2.1630 H   0  0  0  0  0
   -1.0380    4.0280    1.7740 H   0  0  0  0  0
    0.5610    3.6940    2.4820 H   0  0  0  0  0
    2.6280    4.0510    1.1240 H   0  0  0  0  0
    2.5010    4.6390   -0.5510 H   0  0  0  0  0
    2.1280    5.7290    0.8050 H   0  0  0  0  0
    2.1960    2.9570   -1.4540 H   0  0  0  0  0
    0.9950    1.7190   -1.8940 H   0  0  0  0  0
    0.8880    3.5770   -3.2310 H   0  0  0  0  0
  1  2  1  0  0  0
  2  3  2  0  0  0
  2  7  1  0  0  0
  3  4  1  0  0  0
  3 28  1  0  0  0
  4  5  2  0  0  0
  4  8  1  0  0  0
  5  6  1  0  0  0
  5 29  1  0  0  0
  6  7  2  0  0  0
  6 30  1  0  0  0
  7 31  1  0  0  0
  8  9  1  0  0  0
  8 32  1  0  0  0
  9 10  2  0  0  0
  9 20  1  0  0  0
 10 11  1  0  0  0
 10 12  1  0  0  0
 11 17  2  0  0  0
 12 13  1  0  0  0
 12 18  2  0  0  0
 13 14  1  0  0  0
 13 17  1  0  0  0
 14 15  1  0  0  0
 14 16  1  0  0  0
 14 33  1  0  0  0
 15 34  1  0  0  0
 15 35  1  0  0  0
 15 36  1  0  0  0
 16 37  1  0  0  0
 16 38  1  0  0  0
 16 39  1  0  0  0
 17 40  1  0  0  0
 18 19  1  0  0  0
 19 20  2  0  0  0
 19 21  1  0  0  0
 21 22  1  0  0  0
 21 41  1  0  0  0
 22 23  1  0  0  0
 22 26  1  0  0  0
 22 42  1  0  0  0
 23 24  1  0  0  0
 23 25  1  0  0  0
 23 43  1  0  0  0
 24 44  1  0  0  0
 24 45  1  0  0  0
 24 46  1  0  0  0
 25 47  1  0  0  0
 25 48  1  0  0  0
 25 49  1  0  0  0
 26 27  1  0  0  0
 26 50  1  0  0  0
 26 51  1  0  0  0
 27 52  1  0  0  0
M  END
$$$$
