P0E
  CCTOOLS-0919241029

122121  0  0  1  0  0  0  0  0999 V2000
   14.4970    5.5580  -10.5310 O   0  0  0  0  0
   13.5690    4.7860  -11.2960 C   0  0  0  0  0
   14.2290    3.4550  -11.6320 C   0  0  0  0  0
   12.3020    4.5870  -10.4710 C   0  0  0  0  0
   15.3920    3.7020  -12.4280 O   0  0  0  0  0
   12.6190    3.9200   -9.2530 O   0  0  0  0  0
   10.6840    4.8170   -7.7200 O   0  0  0  0  0
   11.4170    3.6050   -8.2190 P   0  0  0  0  0
   12.1550    2.7540   -7.0570 O   0  0  0  0  0
   10.4880    2.5170   -8.9770 O   0  0  0  0  0
   14.0670    6.8000  -10.1640 C   0  0  0  0  0
   12.9780    7.2930  -10.4290 O   0  0  0  0  0
   16.0910    2.5940  -12.8080 C   0  0  0  0  0
   15.8140    1.4340  -12.5320 O   0  0  0  0  0
   15.1370    7.5100   -9.3720 C   0  0  0  0  0
   15.4750    6.7940   -8.0670 C   0  0  0  0  0
   14.2790    6.7240   -7.1130 C   0  0  0  0  0
   14.6530    6.0270   -5.8030 C   0  0  0  0  0
   13.4450    5.9230   -4.8700 C   0  0  0  0  0
   13.8030    5.1910   -3.5710 C   0  0  0  0  0
   12.6210    5.0950   -2.5960 C   0  0  0  0  0
   11.3800    4.3780   -3.0630 C   0  0  0  0  0
   11.0870    3.0800   -2.8860 C   0  0  0  0  0
   17.2870    2.9980  -13.6350 C   0  0  0  0  0
   18.0820    1.7900  -14.1250 C   0  0  0  0  0
   19.3330    2.1980  -14.9080 C   0  0  0  0  0
   20.1460    1.0040  -15.4170 C   0  0  0  0  0
   21.3800    1.3520  -16.2580 C   0  0  0  0  0
   22.1230    0.1190  -16.7840 C   0  0  0  0  0
   23.3580    0.4710  -17.6210 C   0  0  0  0  0
   24.0400   -0.7350  -18.2020 C   0  0  0  0  0
   24.1600   -0.9580  -19.5190 C   0  0  0  0  0
   23.6290   -0.0310  -20.5740 C   0  0  0  0  0
   11.9720    2.1010   -2.1720 C   0  0  0  0  0
   24.7090    0.4870  -21.5310 C   0  0  0  0  0
   24.1610    1.4180  -22.6180 C   0  0  0  0  0
   25.2820    1.9310  -23.5260 C   0  0  0  0  0
   24.8040    2.9380  -24.5770 C   0  0  0  0  0
   25.8940    3.5530  -25.4600 C   0  0  0  0  0
   25.3650    4.5950  -26.4450 C   0  0  0  0  0
   26.4690    5.1090  -27.3570 C   0  0  0  0  0
   11.6630    1.9850   -0.6740 C   0  0  0  0  0
   10.2580    1.4830   -0.3120 C   0  0  0  0  0
    9.9790    1.4780    1.1930 C   0  0  0  0  0
    8.5500    1.0510    1.5370 C   0  0  0  0  0
    8.2420    1.1180    3.0250 C   0  0  0  0  0
   11.0630    1.3290   -9.4940 C   0  0  0  0  0
    9.9770    0.4970  -10.1470 C   0  0  0  0  0
    9.3740    1.2550  -11.1890 O   0  0  0  0  0
   13.3610    5.3550  -12.2090 H   0  0  0  0  0
   13.5560    2.8130  -12.2100 H   0  0  0  0  0
   14.5440    2.9310  -10.7250 H   0  0  0  0  0
   11.5630    3.9820  -11.0060 H   0  0  0  0  0
   11.8480    5.5470  -10.2070 H   0  0  0  0  0
   11.6650    2.5580   -6.2300 H   0  0  0  0  0
   16.0280    7.5930  -10.0040 H   0  0  0  0  0
   14.7990    8.5330   -9.1740 H   0  0  0  0  0
   15.8370    5.7810   -8.2750 H   0  0  0  0  0
   16.2950    7.3320   -7.5760 H   0  0  0  0  0
   13.4560    6.1790   -7.5900 H   0  0  0  0  0
   13.9160    7.7360   -6.8990 H   0  0  0  0  0
   15.4590    6.5800   -5.3060 H   0  0  0  0  0
   15.0340    5.0220   -6.0190 H   0  0  0  0  0
   12.6360    5.4060   -5.3960 H   0  0  0  0  0
   13.0750    6.9270   -4.6300 H   0  0  0  0  0
   14.6150    5.7390   -3.0770 H   0  0  0  0  0
   14.1970    4.1910   -3.7870 H   0  0  0  0  0
   12.9640    4.5940   -1.6830 H   0  0  0  0  0
   12.3310    6.1110   -2.3010 H   0  0  0  0  0
   10.6670    4.9980   -3.6030 H   0  0  0  0  0
   10.1570    2.6780   -3.2740 H   0  0  0  0  0
   17.9190    3.6490  -13.0200 H   0  0  0  0  0
   16.9410    3.6060  -14.4780 H   0  0  0  0  0
   17.4380    1.1560  -14.7440 H   0  0  0  0  0
   18.3830    1.1920  -13.2560 H   0  0  0  0  0
   19.9810    2.7970  -14.2550 H   0  0  0  0  0
   19.0630    2.8470  -15.7480 H   0  0  0  0  0
   20.4640    0.4080  -14.5520 H   0  0  0  0  0
   19.4920    0.3550  -16.0130 H   0  0  0  0  0
   21.0470    1.9580  -17.1100 H   0  0  0  0  0
   22.0550    1.9870  -15.6760 H   0  0  0  0  0
   22.4240   -0.5290  -15.9520 H   0  0  0  0  0
   21.4380   -0.4650  -17.4110 H   0  0  0  0  0
   24.0800    1.0250  -17.0090 H   0  0  0  0  0
   23.0470    1.1510  -18.4240 H   0  0  0  0  0
   24.4670   -1.4480  -17.5010 H   0  0  0  0  0
   24.6490   -1.8670  -19.8600 H   0  0  0  0  0
   23.1410    0.8330  -20.1060 H   0  0  0  0  0
   22.8510   -0.5540  -21.1430 H   0  0  0  0  0
   13.0260    2.3830   -2.2870 H   0  0  0  0  0
   11.8710    1.1210   -2.6540 H   0  0  0  0  0
   25.4550    1.0320  -20.9390 H   0  0  0  0  0
   25.2310   -0.3580  -21.9970 H   0  0  0  0  0
   23.4190    0.8810  -23.2180 H   0  0  0  0  0
   23.6520    2.2690  -22.1500 H   0  0  0  0  0
   25.7820    1.0880  -24.0140 H   0  0  0  0  0
   26.0440    2.4240  -22.9090 H   0  0  0  0  0
   24.0690    2.4480  -25.2280 H   0  0  0  0  0
   24.2680    3.7450  -24.0630 H   0  0  0  0  0
   26.6780    3.9960  -24.8350 H   0  0  0  0  0
   26.3740    2.7400  -26.0210 H   0  0  0  0  0
   24.9370    5.4450  -25.9040 H   0  0  0  0  0
   24.5670    4.1590  -27.0570 H   0  0  0  0  0
   26.9020    4.2950  -27.9470 H   0  0  0  0  0
   26.0700    5.8560  -28.0500 H   0  0  0  0  0
   27.2700    5.5770  -26.7760 H   0  0  0  0  0
   11.8020    2.9690   -0.2070 H   0  0  0  0  0
   12.4070    1.3210   -0.2160 H   0  0  0  0  0
   10.1110    0.4820   -0.7310 H   0  0  0  0  0
    9.5260    2.1330   -0.8080 H   0  0  0  0  0
   10.6810    0.8150    1.7110 H   0  0  0  0  0
   10.1450    2.4870    1.5890 H   0  0  0  0  0
    8.3620    0.0350    1.1690 H   0  0  0  0  0
    7.8540    1.7130    1.0080 H   0  0  0  0  0
    7.1810    0.9110    3.1990 H   0  0  0  0  0
    8.8180    0.3770    3.5870 H   0  0  0  0  0
    8.4640    2.1100    3.4300 H   0  0  0  0  0
   11.8340    1.6110  -10.2180 H   0  0  0  0  0
   11.5190    0.7800   -8.6650 H   0  0  0  0  0
    9.1980    0.2280   -9.4270 H   0  0  0  0  0
   10.4010   -0.4110  -10.5860 H   0  0  0  0  0
    8.8600    1.9590  -10.7600 H   0  0  0  0  0
  1  2  1  0  0  0
  1 11  1  0  0  0
  2  3  1  0  0  0
  2  4  1  0  0  0
  2 50  1  0  0  0
  3  5  1  0  0  0
  3 51  1  0  0  0
  3 52  1  0  0  0
  4  6  1  0  0  0
  4 53  1  0  0  0
  4 54  1  0  0  0
  5 13  1  0  0  0
  6  8  1  0  0  0
  7  8  2  0  0  0
  8  9  1  0  0  0
  8 10  1  0  0  0
  9 55  1  0  0  0
 10 47  1  0  0  0
 11 12  2  0  0  0
 11 15  1  0  0  0
 13 14  2  0  0  0
 13 24  1  0  0  0
 15 16  1  0  0  0
 15 56  1  0  0  0
 15 57  1  0  0  0
 16 17  1  0  0  0
 16 58  1  0  0  0
 16 59  1  0  0  0
 17 18  1  0  0  0
 17 60  1  0  0  0
 17 61  1  0  0  0
 18 19  1  0  0  0
 18 62  1  0  0  0
 18 63  1  0  0  0
 19 20  1  0  0  0
 19 64  1  0  0  0
 19 65  1  0  0  0
 20 21  1  0  0  0
 20 66  1  0  0  0
 20 67  1  0  0  0
 21 22  1  0  0  0
 21 68  1  0  0  0
 21 69  1  0  0  0
 22 23  2  0  0  0
 22 70  1  0  0  0
 23 34  1  0  0  0
 23 71  1  0  0  0
 24 25  1  0  0  0
 24 72  1  0  0  0
 24 73  1  0  0  0
 25 26  1  0  0  0
 25 74  1  0  0  0
 25 75  1  0  0  0
 26 27  1  0  0  0
 26 76  1  0  0  0
 26 77  1  0  0  0
 27 28  1  0  0  0
 27 78  1  0  0  0
 27 79  1  0  0  0
 28 29  1  0  0  0
 28 80  1  0  0  0
 28 81  1  0  0  0
 29 30  1  0  0  0
 29 82  1  0  0  0
 29 83  1  0  0  0
 30 31  1  0  0  0
 30 84  1  0  0  0
 30 85  1  0  0  0
 31 32  2  0  0  0
 31 86  1  0  0  0
 32 33  1  0  0  0
 32 87  1  0  0  0
 33 35  1  0  0  0
 33 88  1  0  0  0
 33 89  1  0  0  0
 34 42  1  0  0  0
 34 90  1  0  0  0
 34 91  1  0  0  0
 35 36  1  0  0  0
 35 92  1  0  0  0
 35 93  1  0  0  0
 36 37  1  0  0  0
 36 94  1  0  0  0
 36 95  1  0  0  0
 37 38  1  0  0  0
 37 96  1  0  0  0
 37 97  1  0  0  0
 38 39  1  0  0  0
 38 98  1  0  0  0
 38 99  1  0  0  0
 39 40  1  0  0  0
 39100  1  0  0  0
 39101  1  0  0  0
 40 41  1  0  0  0
 40102  1  0  0  0
 40103  1  0  0  0
 41104  1  0  0  0
 41105  1  0  0  0
 41106  1  0  0  0
 42 43  1  0  0  0
 42107  1  0  0  0
 42108  1  0  0  0
 43 44  1  0  0  0
 43109  1  0  0  0
 43110  1  0  0  0
 44 45  1  0  0  0
 44111  1  0  0  0
 44112  1  0  0  0
 45 46  1  0  0  0
 45113  1  0  0  0
 45114  1  0  0  0
 46115  1  0  0  0
 46116  1  0  0  0
 46117  1  0  0  0
 47 48  1  0  0  0
 47118  1  0  0  0
 47119  1  0  0  0
 48 49  1  0  0  0
 48120  1  0  0  0
 48121  1  0  0  0
 49122  1  0  0  0
M  END
$$$$
