P16
  CCTOOLS-0919241029

 45 48  0  0  0  0  0  0  0  0999 V2000
    0.4350    0.2890   -9.0390 O   0  0  0  0  0
    0.6320   -0.8420   -8.1900 C   0  0  0  0  0
   -0.0760   -0.6180   -6.8800 C   0  0  0  0  0
   -1.3900   -1.0230   -6.7270 C   0  0  0  0  0
   -2.0440   -0.8190   -5.5260 C   0  0  0  0  0
   -1.3880   -0.2090   -4.4750 C   0  0  0  0  0
   -0.0690    0.1980   -4.6250 C   0  0  0  0  0
    0.5980    0.8160   -3.5630 N   0  0  0  0  0
    0.3170    0.4450   -2.2620 C   0  0  0  0  0
   -0.5050   -0.5760   -2.0510 N   0  0  0  0  0
   -0.8050   -0.9700   -0.8280 C   0  0  0  0  0
   -0.2350   -0.2860    0.2560 C   0  0  0  0  0
   -0.5190   -0.6620    1.5890 C   0  0  0  0  0
    0.0610    0.0370    2.6130 C   0  0  0  0  0
    0.9580    1.1520    2.3040 C   0  0  0  0  0
    1.4790    1.7790    3.2090 O   0  0  0  0  0
    1.2100    1.4880    1.0250 N   0  0  0  0  0
    0.6290    0.7970   -0.0070 C   0  0  0  0  0
    0.8780    1.1200   -1.2710 N   0  0  0  0  0
    2.1100    2.6070    0.7320 C   0  0  0  0  0
   -0.2150   -0.3310    4.0210 C   0  0  0  0  0
    0.5910   -1.2650    4.6730 C   0  0  0  0  0
    1.9240   -1.9970    3.8350 CL  0  0  0  0  0
    0.3280   -1.6040    5.9860 C   0  0  0  0  0
   -0.7320   -1.0200    6.6540 C   0  0  0  0  0
   -1.5360   -0.0950    6.0140 C   0  0  0  0  0
   -1.2810    0.2560    4.7030 C   0  0  0  0  0
   -2.2910    1.4180    3.9020 CL  0  0  0  0  0
    0.5830   -0.0020   -5.8350 C   0  0  0  0  0
    0.9040    0.1050   -9.8640 H   0  0  0  0  0
    1.6980   -0.9780   -8.0080 H   0  0  0  0  0
    0.2300   -1.7330   -8.6730 H   0  0  0  0  0
   -1.9050   -1.4990   -7.5480 H   0  0  0  0  0
   -3.0700   -1.1370   -5.4100 H   0  0  0  0  0
   -1.9000   -0.0510   -3.5370 H   0  0  0  0  0
    1.2570    1.5050   -3.7400 H   0  0  0  0  0
   -1.4740   -1.8020   -0.6650 H   0  0  0  0  0
   -1.1830   -1.4870    1.7970 H   0  0  0  0  0
    2.4710    3.0360    1.6670 H   0  0  0  0  0
    2.9560    2.2490    0.1460 H   0  0  0  0  0
    1.5720    3.3670    0.1670 H   0  0  0  0  0
    0.9520   -2.3260    6.4910 H   0  0  0  0  0
   -0.9340   -1.2890    7.6810 H   0  0  0  0  0
   -2.3640    0.3550    6.5420 H   0  0  0  0  0
    1.6090    0.3130   -5.9540 H   0  0  0  0  0
  1  2  1  0  0  0
  1 30  1  0  0  0
  2  3  1  0  0  0
  2 31  1  0  0  0
  2 32  1  0  0  0
  3  4  2  0  0  0
  3 29  1  0  0  0
  4  5  1  0  0  0
  4 33  1  0  0  0
  5  6  2  0  0  0
  5 34  1  0  0  0
  6  7  1  0  0  0
  6 35  1  0  0  0
  7  8  1  0  0  0
  7 29  2  0  0  0
  8  9  1  0  0  0
  8 36  1  0  0  0
  9 10  2  0  0  0
  9 19  1  0  0  0
 10 11  1  0  0  0
 11 12  2  0  0  0
 11 37  1  0  0  0
 12 13  1  0  0  0
 12 18  1  0  0  0
 13 14  2  0  0  0
 13 38  1  0  0  0
 14 15  1  0  0  0
 14 21  1  0  0  0
 15 16  2  0  0  0
 15 17  1  0  0  0
 17 18  1  0  0  0
 17 20  1  0  0  0
 18 19  2  0  0  0
 20 39  1  0  0  0
 20 40  1  0  0  0
 20 41  1  0  0  0
 21 22  2  0  0  0
 21 27  1  0  0  0
 22 23  1  0  0  0
 22 24  1  0  0  0
 24 25  2  0  0  0
 24 42  1  0  0  0
 25 26  1  0  0  0
 25 43  1  0  0  0
 26 27  2  0  0  0
 26 44  1  0  0  0
 27 28  1  0  0  0
 29 45  1  0  0  0
M  END
$$$$
