P1T
  CCTOOLS-1004241129

 36 36  0  0  0  0  0  0  0  0999 V2000
    0.7200    1.2520   -2.9950 O   0  0  0  0  0
    0.2010   -0.2780   -2.9240 P   0  0  0  0  0
    0.8060   -1.2090   -3.9330 O   0  0  0  0  0
   -1.4070   -0.1290   -3.0090 O   0  0  0  0  0
    0.4380   -0.6930   -1.3800 O   0  0  0  0  0
   -0.1070    0.1430   -0.3650 C   0  0  0  0  0
    0.2260   -0.4200    0.9730 C   0  0  0  0  0
   -0.6320   -1.3220    1.5800 C   0  0  0  0  0
   -0.4090   -1.8820    2.7910 N   0  0  0  0  0
    0.7300   -1.5160    3.4210 C   0  0  0  0  0
    0.9640   -2.1400    4.7570 C   0  0  0  0  0
    1.6520   -0.6230    2.9000 C   0  0  0  0  0
    2.7790   -0.2970    3.5860 O   0  0  0  0  0
    1.3880   -0.0680    1.6520 C   0  0  0  0  0
    2.3510    0.9010    1.0460 C   0  0  0  0  0
    2.0550    2.2620    1.4100 N   0  0  0  0  0
    2.9160    3.0370    2.0680 C   0  0  0  0  0
    2.5700    4.0240    2.9090 C   0  0  0  0  0
    4.3730    2.8100    1.8700 C   0  0  0  0  0
    5.0680    3.1440    2.9850 O   0  0  0  0  0
    4.8940    2.3810    0.8520 O   0  0  0  0  0
    0.7370    1.7070   -3.8640 H   0  0  0  0  0
   -1.8230    0.0320   -3.8830 H   0  0  0  0  0
   -1.1940    0.2100   -0.5140 H   0  0  0  0  0
    0.3030    1.1550   -0.4860 H   0  0  0  0  0
   -1.5530   -1.6350    1.0990 H   0  0  0  0  0
    1.7470   -1.5960    5.2980 H   0  0  0  0  0
    0.0510   -2.1330    5.3640 H   0  0  0  0  0
    1.2720   -3.1880    4.6570 H   0  0  0  0  0
    2.5570   -0.0250    4.4920 H   0  0  0  0  0
    3.3790    0.6870    1.3680 H   0  0  0  0  0
    2.3400    0.8430   -0.0500 H   0  0  0  0  0
    1.1510    2.6690    1.1630 H   0  0  0  0  0
    1.5240    4.2450    3.1000 H   0  0  0  0  0
    3.2990    4.6370    3.4280 H   0  0  0  0  0
    6.0320    2.9990    2.8740 H   0  0  0  0  0
  1  2  1  0  0  0
  1 22  1  0  0  0
  2  3  2  0  0  0
  2  5  1  0  0  0
  2  4  1  0  0  0
  4 23  1  0  0  0
  5  6  1  0  0  0
  6  7  1  0  0  0
  6 24  1  0  0  0
  6 25  1  0  0  0
  7 14  1  0  0  0
  7  8  2  0  0  0
  8  9  1  0  0  0
  8 26  1  0  0  0
  9 10  2  0  0  0
 10 12  1  0  0  0
 10 11  1  0  0  0
 11 27  1  0  0  0
 11 28  1  0  0  0
 11 29  1  0  0  0
 12 13  1  0  0  0
 12 14  2  0  0  0
 13 30  1  0  0  0
 14 15  1  0  0  0
 15 16  1  0  0  0
 15 31  1  0  0  0
 15 32  1  0  0  0
 16 17  1  0  0  0
 16 33  1  0  0  0
 17 19  1  0  0  0
 17 18  2  0  0  0
 18 34  1  0  0  0
 18 35  1  0  0  0
 19 21  2  0  0  0
 19 20  1  0  0  0
 20 36  1  0  0  0
M  END
$$$$
