P2P
  CCTOOLS-0919241030

 36 38  0  0  1  0  0  0  0  0999 V2000
   -0.6680   -0.1080   -4.8490 P   0  0  0  0  0
    0.2420   -1.1860   -5.2930 O   0  0  0  0  0
   -2.1400   -0.3690   -5.4480 O   0  0  0  0  0
   -0.1180    1.3100   -5.3770 O   0  0  0  0  0
   -0.7380   -0.0910   -3.2410 O   0  0  0  0  0
    0.5910    0.1420   -2.7720 C   0  0  0  0  0
    0.5950    0.1700   -1.2430 C   0  0  0  0  0
    0.1570   -1.1030   -0.7150 O   0  0  0  0  0
    2.0320    0.3440   -0.7050 C   0  0  0  0  0
    2.2780    1.7110   -0.3670 O   0  0  0  0  0
    2.0730   -0.5410    0.5590 C   0  0  0  0  0
    2.3490    0.2500    1.7170 O   0  0  0  0  0
    0.6540   -1.1470    0.6390 C   0  0  0  0  0
   -1.0990    0.5850    1.1390 C   0  0  0  0  0
   -1.6770    1.1090    2.1830 N   0  0  0  0  0
   -1.1820    0.5540    3.3050 C   0  0  0  0  0
   -0.2230   -0.3940    2.9010 C   0  0  0  0  0
   -0.1940   -0.3420    1.5220 N   0  0  0  0  0
   -1.4130    0.7160    4.6090 N   0  0  0  0  0
   -0.7480    0.0010    5.4980 C   0  0  0  0  0
    0.1630   -0.8930    5.1470 N   0  0  0  0  0
    0.4520   -1.1150    3.8730 C   0  0  0  0  0
   -1.0060    0.1900    6.8150 O   0  0  0  0  0
   -2.0540   -0.3710   -6.4110 H   0  0  0  0  0
   -0.7390    1.9830   -5.0670 H   0  0  0  0  0
    0.9470    1.0990   -3.1540 H   0  0  0  0  0
    1.2450   -0.6540   -3.1230 H   0  0  0  0  0
   -0.0450    0.9730   -0.8770 H   0  0  0  0  0
    2.7590   -0.0030   -1.4380 H   0  0  0  0  0
    3.1760    1.7530   -0.0100 H   0  0  0  0  0
    2.8190   -1.3290    0.4500 H   0  0  0  0  0
    3.2190    0.6480    1.5820 H   0  0  0  0  0
    0.7000   -2.1760    0.9940 H   0  0  0  0  0
   -1.3120    0.8540    0.1150 H   0  0  0  0  0
    1.1970   -1.8470    3.5980 H   0  0  0  0  0
   -1.7140   -0.4240    7.0510 H   0  0  0  0  0
  1  2  2  0  0  0
  1  3  1  0  0  0
  1  4  1  0  0  0
  1  5  1  0  0  0
  3 24  1  0  0  0
  4 25  1  0  0  0
  5  6  1  0  0  0
  6  7  1  0  0  0
  6 26  1  0  0  0
  6 27  1  0  0  0
  7  8  1  0  0  0
  7  9  1  0  0  0
  7 28  1  0  0  0
  8 13  1  0  0  0
  9 10  1  0  0  0
  9 11  1  0  0  0
  9 29  1  0  0  0
 10 30  1  0  0  0
 11 12  1  0  0  0
 11 13  1  0  0  0
 11 31  1  0  0  0
 12 32  1  0  0  0
 13 18  1  0  0  0
 13 33  1  0  0  0
 14 15  2  0  0  0
 14 18  1  0  0  0
 14 34  1  0  0  0
 15 16  1  0  0  0
 16 17  2  0  0  0
 16 19  1  0  0  0
 17 18  1  0  0  0
 17 22  1  0  0  0
 19 20  2  0  0  0
 20 21  1  0  0  0
 20 23  1  0  0  0
 21 22  2  0  0  0
 22 35  1  0  0  0
 23 36  1  0  0  0
M  END
$$$$
