P36
  CCTOOLS-0919241030

 39 41  0  0  0  0  0  0  0  0999 V2000
   -5.6620    0.3700   -1.4140 C   0  0  0  0  0
   -6.0850   -0.8960   -1.7760 C   0  0  0  0  0
   -5.6630   -1.9980   -1.0560 C   0  0  0  0  0
   -4.8190   -1.8340    0.0260 C   0  0  0  0  0
   -4.3960   -0.5690    0.3890 C   0  0  0  0  0
   -4.8130    0.5330   -0.3350 C   0  0  0  0  0
   -3.4760   -0.3910    1.5690 C   0  0  0  0  0
   -2.0840   -0.4600    1.1170 N   0  0  0  0  0
   -1.4540    0.6670    0.7380 C   0  0  0  0  0
   -0.1230    0.6170    0.3030 C   0  0  0  0  0
    0.5280   -0.6020    0.2710 C   0  0  0  0  0
   -0.1670   -1.7580    0.6770 C   0  0  0  0  0
   -1.4470   -1.6610    1.0930 C   0  0  0  0  0
   -2.0440    1.7360    0.7720 O   0  0  0  0  0
    1.8150   -0.6830   -0.1450 O   0  0  0  0  0
    2.7870   -1.0760    0.8260 C   0  0  0  0  0
    4.1650   -0.9900    0.2210 C   0  0  0  0  0
    4.8880    0.1850    0.3120 C   0  0  0  0  0
    6.1510    0.2640   -0.2430 C   0  0  0  0  0
    6.6920   -0.8320   -0.8890 C   0  0  0  0  0
    5.9690   -2.0070   -0.9790 C   0  0  0  0  0
    4.7080   -2.0880   -0.4190 C   0  0  0  0  0
    0.7690    2.1960   -0.2330 BR  0  0  0  0  0
   -5.9920    1.2310   -1.9760 H   0  0  0  0  0
   -6.7450   -1.0230   -2.6210 H   0  0  0  0  0
   -5.9940   -2.9860   -1.3380 H   0  0  0  0  0
   -4.4890   -2.6950    0.5890 H   0  0  0  0  0
   -4.4830    1.5210   -0.0520 H   0  0  0  0  0
   -3.6600    0.5790    2.0300 H   0  0  0  0  0
   -3.6610   -1.1810    2.2960 H   0  0  0  0  0
    0.3250   -2.7200    0.6590 H   0  0  0  0  0
   -1.9760   -2.5500    1.4040 H   0  0  0  0  0
    2.7270   -0.4120    1.6890 H   0  0  0  0  0
    2.5920   -2.1010    1.1420 H   0  0  0  0  0
    4.4650    1.0410    0.8160 H   0  0  0  0  0
    6.7160    1.1820   -0.1730 H   0  0  0  0  0
    7.6780   -0.7710   -1.3240 H   0  0  0  0  0
    6.3910   -2.8640   -1.4850 H   0  0  0  0  0
    4.1430   -3.0060   -0.4900 H   0  0  0  0  0
  1  2  1  0  0  0
  1 24  1  0  0  0
  2  3  2  0  0  0
  2 25  1  0  0  0
  3 26  1  0  0  0
  4  3  1  0  0  0
  4 27  1  0  0  0
  5  4  2  0  0  0
  6  1  2  0  0  0
  6  5  1  0  0  0
  6 28  1  0  0  0
  7  5  1  0  0  0
  7 29  1  0  0  0
  7 30  1  0  0  0
  8  7  1  0  0  0
  9  8  1  0  0  0
  9 14  2  0  0  0
 10  9  1  0  0  0
 11 10  2  0  0  0
 11 12  1  0  0  0
 12 13  2  0  0  0
 12 31  1  0  0  0
 13  8  1  0  0  0
 13 32  1  0  0  0
 15 11  1  0  0  0
 16 15  1  0  0  0
 16 33  1  0  0  0
 16 34  1  0  0  0
 17 16  1  0  0  0
 18 17  2  0  0  0
 18 35  1  0  0  0
 19 18  1  0  0  0
 19 36  1  0  0  0
 20 19  2  0  0  0
 20 21  1  0  0  0
 20 37  1  0  0  0
 21 22  2  0  0  0
 21 38  1  0  0  0
 22 17  1  0  0  0
 22 39  1  0  0  0
 23 10  1  0  0  0
M  END
$$$$
