P42
  CCTOOLS-0919241030

140139  0  0  1  0  0  0  0  0999 V2000
   -1.9310   -3.5170   -2.9610 C   0  0  0  0  0
   -2.8520   -2.3130   -3.1740 C   0  0  0  0  0
   -1.2600   -1.5150   -4.7810 C   0  0  0  0  0
   -2.9480   -0.0390   -3.9310 C   0  0  0  0  0
   -1.1530   -0.7540   -2.5090 C   0  0  0  0  0
  -20.7080    5.3920   -1.0920 C   0  0  0  0  0
  -19.7000    4.8870   -0.0580 C   0  0  0  0  0
  -18.3920    4.5170   -0.7610 C   0  0  0  0  0
  -17.3830    4.0120    0.2730 C   0  0  0  0  0
  -16.0750    3.6420   -0.4290 C   0  0  0  0  0
  -15.0660    3.1370    0.6050 C   0  0  0  0  0
  -13.7580    2.7670   -0.0980 C   0  0  0  0  0
  -12.7500    2.2620    0.9360 C   0  0  0  0  0
  -11.4410    1.8930    0.2340 C   0  0  0  0  0
  -10.4330    1.3880    1.2680 C   0  0  0  0  0
   -9.1250    1.0180    0.5660 C   0  0  0  0  0
   -8.1160    0.5130    1.5990 C   0  0  0  0  0
   -6.8080    0.1430    0.8970 C   0  0  0  0  0
   -5.7990   -0.3620    1.9310 C   0  0  0  0  0
   -4.4910   -0.7320    1.2290 C   0  0  0  0  0
   -3.4830   -1.2370    2.2620 C   0  0  0  0  0
   -2.1750   -1.6070    1.5600 C   0  0  0  0  0
   -1.1660   -2.1120    2.5940 C   0  0  0  0  0
   -0.8280   -1.0490    3.4880 O   0  0  0  0  0
    0.0130   -2.5660    1.9260 O   0  0  0  0  0
    0.9280   -3.2640    2.7730 C   0  0  0  0  0
    2.1460   -3.7020    1.9570 C   0  0  0  0  0
    1.6840   -4.5220    0.7510 C   0  0  0  0  0
    0.7350   -3.7660   -0.0030 O   0  0  0  0  0
    0.0370   -4.3210   -1.3440 P   0  0  0  0  0
    1.1090   -4.5150   -2.4400 O   0  5  0  0  0
   -0.6450   -5.6750   -1.0450 O   0  0  0  0  0
   -1.0660   -3.2650   -1.8520 O   0  0  0  0  0
    2.8560   -2.5470    1.5050 O   0  0  0  0  0
    4.2620   -2.7520    1.3520 C   0  0  0  0  0
    4.4990   -3.6150    0.2380 O   0  0  0  0  0
    4.9500   -1.4070    1.1100 C   0  0  0  0  0
    6.4660   -1.6100    1.0710 C   0  0  0  0  0
    7.1540   -0.2650    0.8290 C   0  0  0  0  0
    8.6700   -0.4670    0.7890 C   0  0  0  0  0
    9.3580    0.8780    0.5480 C   0  0  0  0  0
   10.8750    0.6750    0.5080 C   0  0  0  0  0
   11.5630    2.0200    0.2670 C   0  0  0  0  0
   13.0790    1.8170    0.2270 C   0  0  0  0  0
   13.7670    3.1620   -0.0150 C   0  0  0  0  0
   15.2830    2.9590   -0.0540 C   0  0  0  0  0
   15.9710    4.3040   -0.2960 C   0  0  0  0  0
   17.4870    4.1020   -0.3360 C   0  0  0  0  0
   18.1750    5.4470   -0.5770 C   0  0  0  0  0
   19.6910    5.2440   -0.6170 C   0  0  0  0  0
   20.3790    6.5890   -0.8580 C   0  0  0  0  0
   -2.5330   -4.4030   -2.7590 H   0  0  0  0  0
   -1.3340   -3.6800   -3.8580 H   0  0  0  0  0
   -3.5870   -2.5490   -3.9430 H   0  0  0  0  0
   -3.3640   -2.0780   -2.2400 H   0  0  0  0  0
   -0.6670   -0.6560   -5.0960 H   0  0  0  0  0
   -1.9270   -1.8130   -5.5900 H   0  0  0  0  0
   -0.5960   -2.3440   -4.5350 H   0  0  0  0  0
   -3.6150   -0.3360   -4.7390 H   0  0  0  0  0
   -2.3550    0.8200   -4.2460 H   0  0  0  0  0
   -3.5370    0.2290   -3.0530 H   0  0  0  0  0
   -0.7070    0.2120   -2.7430 H   0  0  0  0  0
   -0.3660   -1.5000   -2.3940 H   0  0  0  0  0
   -1.7190   -0.6780   -1.5800 H   0  0  0  0  0
  -20.3050    6.2710   -1.5950 H   0  0  0  0  0
  -20.8990    4.6090   -1.8260 H   0  0  0  0  0
  -19.5090    5.6690    0.6760 H   0  0  0  0  0
  -18.5820    3.7340   -1.4950 H   0  0  0  0  0
  -17.9880    5.3960   -1.2630 H   0  0  0  0  0
  -17.1920    4.7950    1.0070 H   0  0  0  0  0
  -17.7870    3.1330    0.7750 H   0  0  0  0  0
  -16.2650    2.8590   -1.1630 H   0  0  0  0  0
  -15.6710    4.5210   -0.9320 H   0  0  0  0  0
  -14.8760    3.9200    1.3390 H   0  0  0  0  0
  -15.4700    2.2580    1.1070 H   0  0  0  0  0
  -13.9490    1.9850   -0.8320 H   0  0  0  0  0
  -13.3540    3.6460   -0.6000 H   0  0  0  0  0
  -12.5590    3.0450    1.6700 H   0  0  0  0  0
  -13.1530    1.3830    1.4390 H   0  0  0  0  0
  -11.6320    1.1100   -0.5000 H   0  0  0  0  0
  -10.2420    2.1700    2.0020 H   0  0  0  0  0
   -9.3150    0.2350   -0.1690 H   0  0  0  0  0
   -8.7210    1.8970    0.0630 H   0  0  0  0  0
   -7.9260    1.2960    2.3330 H   0  0  0  0  0
   -8.5200   -0.3660    2.1020 H   0  0  0  0  0
   -6.9980   -0.6400    0.1630 H   0  0  0  0  0
   -6.4040    1.0220    0.3950 H   0  0  0  0  0
   -5.6090    0.4210    2.6650 H   0  0  0  0  0
   -4.6820   -1.5150    0.4940 H   0  0  0  0  0
   -3.2920   -0.4540    2.9970 H   0  0  0  0  0
   -3.8860   -2.1160    2.7650 H   0  0  0  0  0
   -2.3650   -2.3890    0.8260 H   0  0  0  0  0
   -1.7710   -0.7280    1.0580 H   0  0  0  0  0
   -1.6050   -2.9350    3.1570 H   0  0  0  0  0
   -0.4320   -0.2810    3.0540 H   0  0  0  0  0
    1.2490   -2.6070    3.5820 H   0  0  0  0  0
    0.4370   -4.1430    3.1930 H   0  0  0  0  0
    2.8020   -4.3100    2.5810 H   0  0  0  0  0
    2.5430   -4.7580    0.1220 H   0  0  0  0  0
    1.2210   -5.4460    1.0960 H   0  0  0  0  0
    4.6630   -3.2080    2.2570 H   0  0  0  0  0
    4.1670   -3.2720   -0.6030 H   0  0  0  0  0
    4.6140   -0.9920    0.1600 H   0  0  0  0  0
    4.6960   -0.7190    1.9170 H   0  0  0  0  0
    6.8020   -2.0240    2.0210 H   0  0  0  0  0
    6.8180    0.1500   -0.1210 H   0  0  0  0  0
    9.0070   -0.8820    1.7400 H   0  0  0  0  0
    8.9240   -1.1550   -0.0170 H   0  0  0  0  0
    9.0220    1.2920   -0.4020 H   0  0  0  0  0
    9.1050    1.5660    1.3550 H   0  0  0  0  0
   11.2110    0.2600    1.4590 H   0  0  0  0  0
   11.1280   -0.0130   -0.2980 H   0  0  0  0  0
   11.2270    2.4340   -0.6840 H   0  0  0  0  0
   11.3090    2.7080    1.0730 H   0  0  0  0  0
   13.4150    1.4030    1.1770 H   0  0  0  0  0
   13.3320    1.1290   -0.5800 H   0  0  0  0  0
   13.4310    3.5770   -0.9650 H   0  0  0  0  0
   13.5130    3.8500    0.7920 H   0  0  0  0  0
   15.6190    2.5450    0.8960 H   0  0  0  0  0
   15.6350    4.7190   -1.2460 H   0  0  0  0  0
   17.8230    3.6870    0.6150 H   0  0  0  0  0
   17.7410    3.4140   -1.1420 H   0  0  0  0  0
   17.8390    5.8610   -1.5280 H   0  0  0  0  0
   17.9220    6.1350    0.2290 H   0  0  0  0  0
   20.0280    4.8290    0.3340 H   0  0  0  0  0
   21.4600    6.4440   -0.8870 H   0  0  0  0  0
   20.0430    7.0030   -1.8090 H   0  0  0  0  0
   -2.0530   -1.1550   -3.5990 N   0  3  0  0  0
  -21.6400    5.6550   -0.5920 H   0  0  0  0  0
  -20.1040    4.0080    0.4440 H   0  0  0  0  0
  -11.0380    2.7720   -0.2680 H   0  0  0  0  0
  -10.8370    0.5090    1.7700 H   0  0  0  0  0
   -6.2030   -1.2410    2.4330 H   0  0  0  0  0
   -4.0880    0.1470    0.7260 H   0  0  0  0  0
    6.7200   -2.2980    0.2640 H   0  0  0  0  0
    6.9010    0.4230    1.6360 H   0  0  0  0  0
   15.5360    2.2720   -0.8610 H   0  0  0  0  0
   15.7170    4.9920    0.5110 H   0  0  0  0  0
   19.9450    4.5560   -1.4230 H   0  0  0  0  0
   20.1260    7.2770   -0.0520 H   0  0  0  0  0
  1 52  1  0  0  0
  1 53  1  0  0  0
  2  1  1  0  0  0
  2 54  1  0  0  0
  2 55  1  0  0  0
  3128  1  0  0  0
  3 56  1  0  0  0
  3 57  1  0  0  0
  3 58  1  0  0  0
  4128  1  0  0  0
  4 59  1  0  0  0
  4 60  1  0  0  0
  4 61  1  0  0  0
  5128  1  0  0  0
  5 62  1  0  0  0
  5 63  1  0  0  0
  5 64  1  0  0  0
  6  7  1  0  0  0
  6 65  1  0  0  0
  6 66  1  0  0  0
  6129  1  0  0  0
  7  8  1  0  0  0
  7 67  1  0  0  0
  7130  1  0  0  0
  8  9  1  0  0  0
  8 68  1  0  0  0
  8 69  1  0  0  0
  9 10  1  0  0  0
  9 70  1  0  0  0
  9 71  1  0  0  0
 10 72  1  0  0  0
 10 73  1  0  0  0
 11 10  1  0  0  0
 11 12  1  0  0  0
 11 74  1  0  0  0
 11 75  1  0  0  0
 12 76  1  0  0  0
 12 77  1  0  0  0
 13 12  1  0  0  0
 13 14  1  0  0  0
 13 78  1  0  0  0
 13 79  1  0  0  0
 14 15  1  0  0  0
 14 80  1  0  0  0
 14131  1  0  0  0
 15 16  1  0  0  0
 15 81  1  0  0  0
 15132  1  0  0  0
 16 82  1  0  0  0
 16 83  1  0  0  0
 17 16  1  0  0  0
 17 18  1  0  0  0
 17 84  1  0  0  0
 17 85  1  0  0  0
 18 86  1  0  0  0
 18 87  1  0  0  0
 19 18  1  0  0  0
 19 88  1  0  0  0
 19133  1  0  0  0
 20 19  1  0  0  0
 20 21  1  0  0  0
 20 89  1  0  0  0
 20134  1  0  0  0
 21 22  1  0  0  0
 21 90  1  0  0  0
 21 91  1  0  0  0
 22 92  1  0  0  0
 22 93  1  0  0  0
 23 22  1  0  0  0
 23 24  1  0  0  0
 23 94  1  0  0  0
 24 95  1  0  0  0
 25 23  1  0  0  0
 26 25  1  0  0  0
 26 96  1  0  0  0
 26 97  1  0  0  0
 27 26  1  0  0  0
 27 34  1  0  0  0
 27 98  1  0  0  0
 28 27  1  0  0  0
 28 99  1  0  0  0
 28100  1  0  0  0
 29 28  1  0  0  0
 30 29  1  0  0  0
 30 31  1  0  0  0
 32 30  2  0  0  0
 33  1  1  0  0  0
 33 30  1  0  0  0
 35 34  1  0  0  0
 35 37  1  0  0  0
 35101  1  0  0  0
 36 35  1  0  0  0
 36102  1  0  0  0
 37103  1  0  0  0
 37104  1  0  0  0
 38 37  1  0  0  0
 38 39  1  0  0  0
 38105  1  0  0  0
 38135  1  0  0  0
 39106  1  0  0  0
 39136  1  0  0  0
 40 39  1  0  0  0
 40 41  1  0  0  0
 40107  1  0  0  0
 40108  1  0  0  0
 41109  1  0  0  0
 41110  1  0  0  0
 42 41  1  0  0  0
 42 43  1  0  0  0
 42111  1  0  0  0
 42112  1  0  0  0
 43 44  1  0  0  0
 43113  1  0  0  0
 43114  1  0  0  0
 44 45  1  0  0  0
 44115  1  0  0  0
 44116  1  0  0  0
 45 46  1  0  0  0
 45117  1  0  0  0
 45118  1  0  0  0
 46 47  1  0  0  0
 46119  1  0  0  0
 46137  1  0  0  0
 47 48  1  0  0  0
 47120  1  0  0  0
 47138  1  0  0  0
 48 49  1  0  0  0
 48121  1  0  0  0
 48122  1  0  0  0
 49 50  1  0  0  0
 49123  1  0  0  0
 49124  1  0  0  0
 50125  1  0  0  0
 50139  1  0  0  0
 51 50  1  0  0  0
 51126  1  0  0  0
 51127  1  0  0  0
 51140  1  0  0  0
128  2  1  0  0  0
M  CHG  1  31  -1
M  CHG  1 128   1
M  END
$$$$
