P4O
  CCTOOLS-0919241030

 42 46  0  0  0  0  0  0  0  0999 V2000
   -3.0770    3.8960   -1.2840 C   0  0  0  0  0
   -4.3290    4.5200   -1.2140 C   0  0  0  0  0
   -4.5040    5.8620   -1.5910 C   0  0  0  0  0
   -5.7600    6.4580   -1.5120 C   0  0  0  0  0
   -6.8430    5.7170   -1.0560 C   0  0  0  0  0
   -6.6690    4.3820   -0.6820 C   0  0  0  0  0
   -5.4250    3.7610   -0.7510 C   0  0  0  0  0
   -5.2920    2.4730   -0.3820 N   0  0  0  0  0
   -4.0650    1.9080   -0.4650 C   0  0  0  0  0
   -2.9360    2.5680   -0.9050 C   0  0  0  0  0
   -1.6570    1.9030   -0.9680 C   0  0  0  0  0
   -1.3390    0.8820   -0.0860 C   0  0  0  0  0
   -0.8260    2.3540   -1.9340 N   0  0  0  0  0
    0.3800    1.7510   -2.0190 C   0  0  0  0  0
    0.7940    0.7230   -1.1870 C   0  0  0  0  0
   -0.0890    0.2870   -0.2050 C   0  0  0  0  0
    0.2930   -0.7810    0.6880 C   0  0  0  0  0
    1.5420   -1.1420    1.1530 C   0  0  0  0  0
    1.3640   -2.2580    2.0060 C   0  0  0  0  0
    2.3130   -3.0590    2.7570 C   0  0  0  0  0
    3.5270   -2.9330    2.6270 O   0  0  0  0  0
    1.7220   -3.9890    3.6120 N   0  0  0  0  0
    0.2950   -4.0040    3.9500 C   0  0  0  0  0
   -0.6100   -3.6650    2.7600 C   0  0  0  0  0
    0.0160   -2.5460    2.0180 C   0  0  0  0  0
   -0.6310   -1.6450    1.2220 N   0  0  0  0  0
   -2.2110    4.4540   -1.6370 H   0  0  0  0  0
   -3.6630    6.4520   -1.9490 H   0  0  0  0  0
   -5.8920    7.4950   -1.8040 H   0  0  0  0  0
   -7.8260    6.1740   -0.9910 H   0  0  0  0  0
   -7.5330    3.8230   -0.3280 H   0  0  0  0  0
   -4.0300    0.8680   -0.1520 H   0  0  0  0  0
   -2.0450    0.5580    0.6740 H   0  0  0  0  0
    1.0310    2.1280   -2.8010 H   0  0  0  0  0
    1.7780    0.2830   -1.3100 H   0  0  0  0  0
    2.4710   -0.6500    0.9020 H   0  0  0  0  0
   -1.6260   -1.6200    1.0440 H   0  0  0  0  0
    2.3400   -4.5860    4.1550 H   0  0  0  0  0
    0.1610   -3.2650    4.7490 H   0  0  0  0  0
    0.0520   -4.9910    4.3570 H   0  0  0  0  0
   -1.6180   -3.4150    3.1070 H   0  0  0  0  0
   -0.6860   -4.5330    2.0940 H   0  0  0  0  0
  1  2  1  0  0  0
  1 10  2  0  0  0
  1 27  1  0  0  0
  2  3  1  0  0  0
  2  7  2  0  0  0
  3  4  2  0  0  0
  3 28  1  0  0  0
  4  5  1  0  0  0
  4 29  1  0  0  0
  5  6  2  0  0  0
  5 30  1  0  0  0
  6  7  1  0  0  0
  6 31  1  0  0  0
  7  8  1  0  0  0
  8  9  2  0  0  0
  9 10  1  0  0  0
  9 32  1  0  0  0
 10 11  1  0  0  0
 11 12  1  0  0  0
 11 13  2  0  0  0
 12 16  2  0  0  0
 12 33  1  0  0  0
 13 14  1  0  0  0
 14 15  2  0  0  0
 14 34  1  0  0  0
 15 16  1  0  0  0
 15 35  1  0  0  0
 16 17  1  0  0  0
 17 18  2  0  0  0
 17 26  1  0  0  0
 18 19  1  0  0  0
 18 36  1  0  0  0
 19 20  1  0  0  0
 19 25  2  0  0  0
 20 21  2  0  0  0
 20 22  1  0  0  0
 22 23  1  0  0  0
 22 38  1  0  0  0
 23 40  1  0  0  0
 23 24  1  0  0  0
 23 39  1  0  0  0
 24 41  1  0  0  0
 24 42  1  0  0  0
 24 25  1  0  0  0
 25 26  1  0  0  0
 26 37  1  0  0  0
M  END
$$$$
