P4P
  CCTOOLS-0919241030

 45 48  0  0  0  0  0  0  0  0999 V2000
    0.0000    0.0000    0.0000 P   0  3  0  0  0
    1.2320    1.2870   -0.3450 C   0  0  0  0  0
    2.4620    1.2520    0.2840 C   0  0  0  0  0
    3.4000    2.2330    0.0230 C   0  0  0  0  0
    3.1090    3.2480   -0.8690 C   0  0  0  0  0
    1.8790    3.2820   -1.4990 C   0  0  0  0  0
    0.9400    2.3020   -1.2370 C   0  0  0  0  0
   -1.2350   -0.0260   -1.3290 C   0  0  0  0  0
   -1.1530   -0.9760   -2.3290 C   0  0  0  0  0
   -2.0940   -0.9960   -3.3420 C   0  0  0  0  0
   -3.1170   -0.0660   -3.3530 C   0  0  0  0  0
   -3.1990    0.8840   -2.3520 C   0  0  0  0  0
   -2.2600    0.9010   -1.3370 C   0  0  0  0  0
    0.8220   -1.6140    0.0940 C   0  0  0  0  0
    0.3060   -2.6060    0.9070 C   0  0  0  0  0
    0.9330   -3.8360    0.9780 C   0  0  0  0  0
    2.0740   -4.0750    0.2360 C   0  0  0  0  0
    2.5890   -3.0840   -0.5780 C   0  0  0  0  0
    1.9600   -1.8550   -0.6530 C   0  0  0  0  0
   -0.1740    1.1170    2.5360 C   0  0  0  0  0
   -0.7990    1.3900    3.7380 C   0  0  0  0  0
   -2.0660    0.8950    3.9870 C   0  0  0  0  0
   -2.7080    0.1290    3.0320 C   0  0  0  0  0
   -2.0840   -0.1410    1.8280 C   0  0  0  0  0
   -0.8180    0.3550    1.5790 C   0  0  0  0  0
    2.6900    0.4590    0.9820 H   0  0  0  0  0
    4.3620    2.2060    0.5150 H   0  0  0  0  0
    3.8430    4.0120   -1.0770 H   0  0  0  0  0
    1.6510    4.0760   -2.1950 H   0  0  0  0  0
   -0.0210    2.3290   -1.7280 H   0  0  0  0  0
   -0.3540   -1.7030   -2.3210 H   0  0  0  0  0
   -2.0300   -1.7380   -4.1240 H   0  0  0  0  0
   -3.8520   -0.0810   -4.1450 H   0  0  0  0  0
   -3.9980    1.6100   -2.3610 H   0  0  0  0  0
   -2.3240    1.6430   -0.5550 H   0  0  0  0  0
   -0.5850   -2.4190    1.4870 H   0  0  0  0  0
    0.5300   -4.6110    1.6140 H   0  0  0  0  0
    2.5640   -5.0360    0.2920 H   0  0  0  0  0
    3.4810   -3.2700   -1.1580 H   0  0  0  0  0
    2.3630   -1.0800   -1.2890 H   0  0  0  0  0
    0.8150    1.5040    2.3420 H   0  0  0  0  0
   -0.2980    1.9890    4.4840 H   0  0  0  0  0
   -2.5530    1.1070    4.9270 H   0  0  0  0  0
   -3.6970   -0.2580    3.2260 H   0  0  0  0  0
   -2.5860   -0.7400    1.0830 H   0  0  0  0  0
  1  2  1  0  0  0
  1  8  1  0  0  0
  1 14  1  0  0  0
  1 25  1  0  0  0
  2  3  1  0  0  0
  2  7  2  0  0  0
  3  4  2  0  0  0
  3 26  1  0  0  0
  4  5  1  0  0  0
  4 27  1  0  0  0
  5  6  2  0  0  0
  5 28  1  0  0  0
  6  7  1  0  0  0
  6 29  1  0  0  0
  7 30  1  0  0  0
  8  9  2  0  0  0
  8 13  1  0  0  0
  9 10  1  0  0  0
  9 31  1  0  0  0
 10 11  2  0  0  0
 10 32  1  0  0  0
 11 12  1  0  0  0
 11 33  1  0  0  0
 12 13  2  0  0  0
 12 34  1  0  0  0
 13 35  1  0  0  0
 14 15  2  0  0  0
 14 19  1  0  0  0
 15 16  1  0  0  0
 15 36  1  0  0  0
 16 17  2  0  0  0
 16 37  1  0  0  0
 17 18  1  0  0  0
 17 38  1  0  0  0
 18 19  2  0  0  0
 18 39  1  0  0  0
 19 40  1  0  0  0
 20 21  2  0  0  0
 20 25  1  0  0  0
 20 41  1  0  0  0
 21 22  1  0  0  0
 21 42  1  0  0  0
 22 23  2  0  0  0
 22 43  1  0  0  0
 23 24  1  0  0  0
 23 44  1  0  0  0
 24 25  2  0  0  0
 24 45  1  0  0  0
M  CHG  1   1   1
M  END
$$$$
