P6L
  CCTOOLS-0919241030

126125  0  0  1  0  0  0  0  0999 V2000
    1.7210   -4.3300   -0.5220 C   0  0  0  0  0
    3.0470   -4.3840    0.2410 C   0  0  0  0  0
    4.0190   -3.5870   -0.4370 O   0  0  0  0  0
   -2.9860    0.2890   -1.1160 O   0  0  0  0  0
   -2.5100   -0.1770   -2.4060 C   0  0  0  0  0
   -1.4370    0.7790   -2.9300 C   0  0  0  0  0
   -1.9140   -1.5780   -2.2530 C   0  0  0  0  0
   -0.2790    0.7350   -2.0550 O   0  0  0  0  0
   -0.7530   -1.5140   -1.4230 O   0  0  0  0  0
    0.0520   -3.5600   -2.6620 O   0  0  0  0  0
   -0.1800   -3.0140   -1.3070 P   0  0  0  0  0
    1.2070   -2.9970   -0.4900 O   0  0  0  0  0
   -1.2480   -3.9370   -0.5320 O   0  0  0  0  0
   -4.2480    0.0380   -0.7350 C   0  0  0  0  0
   -4.9880   -0.5770   -1.4660 O   0  0  0  0  0
    0.7920    1.4980   -2.3200 C   0  0  0  0  0
    0.7940    2.2210   -3.2880 O   0  0  0  0  0
   -4.7420    0.5220    0.6040 C   0  0  0  0  0
   -6.2020    0.1060    0.7900 C   0  0  0  0  0
   -6.7040    0.5970    2.1490 C   0  0  0  0  0
   -8.1640    0.1820    2.3350 C   0  0  0  0  0
   -8.6580    0.6660    3.6740 C   0  0  0  0  0
   -9.7610    1.3690    3.7500 C   0  0  0  0  0
  -10.6250    1.5490    2.5290 C   0  0  0  0  0
  -12.0580    1.1210    2.8510 C   0  0  0  0  0
  -12.9360    1.3040    1.6110 C   0  0  0  0  0
    1.9940    1.4520   -1.4120 C   0  0  0  0  0
    3.0670    2.4080   -1.9360 C   0  0  0  0  0
    4.2870    2.3610   -1.0140 C   0  0  0  0  0
    5.3590    3.3180   -1.5380 C   0  0  0  0  0
    6.5790    3.2710   -0.6160 C   0  0  0  0  0
    7.6520    4.2280   -1.1400 C   0  0  0  0  0
    8.8540    4.1820   -0.2320 C   0  0  0  0  0
   10.0380    3.9140   -0.7250 C   0  0  0  0  0
   11.2390    3.8680    0.1840 C   0  0  0  0  0
   11.9450    2.5190    0.0280 C   0  0  0  0  0
  -14.3690    0.8750    1.9320 C   0  0  0  0  0
   13.1640    2.4730    0.9510 C   0  0  0  0  0
   13.8700    1.1240    0.7950 C   0  0  0  0  0
   15.0900    1.0770    1.7170 C   0  0  0  0  0
   15.7950   -0.2720    1.5620 C   0  0  0  0  0
   17.0150   -0.3180    2.4840 C   0  0  0  0  0
   17.7210   -1.6670    2.3280 C   0  0  0  0  0
   18.9410   -1.7140    3.2510 C   0  0  0  0  0
  -15.2470    1.0590    0.6920 C   0  0  0  0  0
  -16.6800    0.6300    1.0140 C   0  0  0  0  0
  -17.5570    0.8140   -0.2260 C   0  0  0  0  0
  -18.9900    0.3850    0.0950 C   0  0  0  0  0
  -19.8680    0.5680   -1.1440 C   0  0  0  0  0
    3.5350   -5.8320    0.3130 C   0  0  0  0  0
    4.7100   -5.8990    1.1240 O   0  0  0  0  0
    1.0060   -5.0070   -0.0550 H   0  0  0  0  0
    1.8850   -4.6310   -1.5570 H   0  0  0  0  0
    2.9010   -3.9990    1.2500 H   0  0  0  0  0
    4.1180   -3.9600   -1.3240 H   0  0  0  0  0
   -3.3420   -0.2110   -3.1090 H   0  0  0  0  0
   -1.8350    1.7940   -2.9550 H   0  0  0  0  0
   -1.1440    0.4800   -3.9360 H   0  0  0  0  0
   -2.6510   -2.2390   -1.7970 H   0  0  0  0  0
   -1.6380   -1.9640   -3.2350 H   0  0  0  0  0
   -1.3700   -3.5480    0.3450 H   0  0  0  0  0
   -4.1350    0.0820    1.3960 H   0  0  0  0  0
   -4.6650    1.6080    0.6490 H   0  0  0  0  0
   -6.8090    0.5460   -0.0020 H   0  0  0  0  0
   -6.2790   -0.9800    0.7450 H   0  0  0  0  0
   -6.0970    0.1570    2.9410 H   0  0  0  0  0
   -6.6270    1.6840    2.1940 H   0  0  0  0  0
   -8.7710    0.6220    1.5430 H   0  0  0  0  0
   -8.2410   -0.9050    2.2900 H   0  0  0  0  0
   -8.1030    0.4330    4.5700 H   0  0  0  0  0
  -10.0510    1.8180    4.6880 H   0  0  0  0  0
  -10.6180    2.5980    2.2310 H   0  0  0  0  0
  -10.2370    0.9370    1.7150 H   0  0  0  0  0
  -12.0660    0.0720    3.1490 H   0  0  0  0  0
  -12.4470    1.7330    3.6650 H   0  0  0  0  0
  -12.9290    2.3520    1.3120 H   0  0  0  0  0
  -12.5470    0.6920    0.7970 H   0  0  0  0  0
    2.3920    0.4370   -1.3880 H   0  0  0  0  0
    1.7000    1.7510   -0.4060 H   0  0  0  0  0
    2.6690    3.4230   -1.9610 H   0  0  0  0  0
    3.3600    2.1090   -2.9420 H   0  0  0  0  0
    4.6850    1.3470   -0.9890 H   0  0  0  0  0
    3.9930    2.6610   -0.0080 H   0  0  0  0  0
    4.9610    4.3320   -1.5630 H   0  0  0  0  0
    5.6530    3.0190   -2.5440 H   0  0  0  0  0
    6.9780    2.2570   -0.5910 H   0  0  0  0  0
    6.2860    3.5710    0.3900 H   0  0  0  0  0
    7.2540    5.2420   -1.1650 H   0  0  0  0  0
    7.9460    3.9280   -2.1460 H   0  0  0  0  0
    8.7390    4.3690    0.8260 H   0  0  0  0  0
   10.1530    3.7270   -1.7820 H   0  0  0  0  0
   10.9180    3.9930    1.2180 H   0  0  0  0  0
   11.9270    4.6710   -0.0820 H   0  0  0  0  0
   12.2660    2.3950   -1.0060 H   0  0  0  0  0
   11.2570    1.7170    0.2940 H   0  0  0  0  0
  -14.3760   -0.1730    2.2300 H   0  0  0  0  0
  -14.7580    1.4870    2.7460 H   0  0  0  0  0
   12.8430    2.5970    1.9850 H   0  0  0  0  0
   13.8520    3.2750    0.6840 H   0  0  0  0  0
   14.1910    0.9990   -0.2390 H   0  0  0  0  0
   13.1820    0.3210    1.0610 H   0  0  0  0  0
   14.7690    1.2020    2.7510 H   0  0  0  0  0
   15.7780    1.8800    1.4510 H   0  0  0  0  0
   16.1170   -0.3960    0.5270 H   0  0  0  0  0
   15.1080   -1.0740    1.8280 H   0  0  0  0  0
   16.6940   -0.1940    3.5180 H   0  0  0  0  0
   17.7030    0.4840    2.2180 H   0  0  0  0  0
   18.0420   -1.7920    1.2940 H   0  0  0  0  0
   17.0330   -2.4700    2.5940 H   0  0  0  0  0
   18.6190   -1.5890    4.2850 H   0  0  0  0  0
   19.4430   -2.6750    3.1400 H   0  0  0  0  0
   19.6280   -0.9110    2.9840 H   0  0  0  0  0
  -15.2390    2.1070    0.3940 H   0  0  0  0  0
  -14.8580    0.4470   -0.1220 H   0  0  0  0  0
  -16.6870   -0.4180    1.3120 H   0  0  0  0  0
  -17.0680    1.2420    1.8280 H   0  0  0  0  0
  -17.5500    1.8620   -0.5240 H   0  0  0  0  0
  -17.1690    0.2010   -1.0400 H   0  0  0  0  0
  -18.9970   -0.6640    0.3940 H   0  0  0  0  0
  -19.3790    0.9970    0.9090 H   0  0  0  0  0
  -20.8890    0.2630   -0.9150 H   0  0  0  0  0
  -19.8600    1.6170   -1.4430 H   0  0  0  0  0
  -19.4790   -0.0440   -1.9580 H   0  0  0  0  0
    2.7560   -6.4570    0.7510 H   0  0  0  0  0
    3.7660   -6.1890   -0.6910 H   0  0  0  0  0
    4.9840   -6.8260    1.1430 H   0  0  0  0  0
  1  2  1  0  0  0
  1 12  1  0  0  0
  1 52  1  0  0  0
  1 53  1  0  0  0
  2  3  1  0  0  0
  2 50  1  0  0  0
  2 54  1  0  0  0
  3 55  1  0  0  0
  4  5  1  0  0  0
  4 14  1  0  0  0
  5  6  1  0  0  0
  5  7  1  0  0  0
  5 56  1  0  0  0
  6  8  1  0  0  0
  6 57  1  0  0  0
  6 58  1  0  0  0
  7  9  1  0  0  0
  7 59  1  0  0  0
  7 60  1  0  0  0
  8 16  1  0  0  0
  9 11  1  0  0  0
 10 11  2  0  0  0
 11 12  1  0  0  0
 11 13  1  0  0  0
 13 61  1  0  0  0
 14 15  2  0  0  0
 14 18  1  0  0  0
 16 17  2  0  0  0
 16 27  1  0  0  0
 18 19  1  0  0  0
 18 62  1  0  0  0
 18 63  1  0  0  0
 19 20  1  0  0  0
 19 64  1  0  0  0
 19 65  1  0  0  0
 20 21  1  0  0  0
 20 66  1  0  0  0
 20 67  1  0  0  0
 21 22  1  0  0  0
 21 68  1  0  0  0
 21 69  1  0  0  0
 22 23  2  0  0  0
 22 70  1  0  0  0
 23 24  1  0  0  0
 23 71  1  0  0  0
 24 25  1  0  0  0
 24 72  1  0  0  0
 24 73  1  0  0  0
 25 26  1  0  0  0
 25 74  1  0  0  0
 25 75  1  0  0  0
 26 37  1  0  0  0
 26 76  1  0  0  0
 26 77  1  0  0  0
 27 28  1  0  0  0
 27 78  1  0  0  0
 27 79  1  0  0  0
 28 29  1  0  0  0
 28 80  1  0  0  0
 28 81  1  0  0  0
 29 30  1  0  0  0
 29 82  1  0  0  0
 29 83  1  0  0  0
 30 31  1  0  0  0
 30 84  1  0  0  0
 30 85  1  0  0  0
 31 32  1  0  0  0
 31 86  1  0  0  0
 31 87  1  0  0  0
 32 33  1  0  0  0
 32 88  1  0  0  0
 32 89  1  0  0  0
 33 34  2  0  0  0
 33 90  1  0  0  0
 34 35  1  0  0  0
 34 91  1  0  0  0
 35 36  1  0  0  0
 35 92  1  0  0  0
 35 93  1  0  0  0
 36 38  1  0  0  0
 36 94  1  0  0  0
 36 95  1  0  0  0
 37 45  1  0  0  0
 37 96  1  0  0  0
 37 97  1  0  0  0
 38 39  1  0  0  0
 38 98  1  0  0  0
 38 99  1  0  0  0
 39 40  1  0  0  0
 39100  1  0  0  0
 39101  1  0  0  0
 40 41  1  0  0  0
 40102  1  0  0  0
 40103  1  0  0  0
 41 42  1  0  0  0
 41104  1  0  0  0
 41105  1  0  0  0
 42 43  1  0  0  0
 42106  1  0  0  0
 42107  1  0  0  0
 43 44  1  0  0  0
 43108  1  0  0  0
 43109  1  0  0  0
 44110  1  0  0  0
 44111  1  0  0  0
 44112  1  0  0  0
 45 46  1  0  0  0
 45113  1  0  0  0
 45114  1  0  0  0
 46 47  1  0  0  0
 46115  1  0  0  0
 46116  1  0  0  0
 47 48  1  0  0  0
 47117  1  0  0  0
 47118  1  0  0  0
 48 49  1  0  0  0
 48119  1  0  0  0
 48120  1  0  0  0
 49121  1  0  0  0
 49122  1  0  0  0
 49123  1  0  0  0
 50 51  1  0  0  0
 50124  1  0  0  0
 50125  1  0  0  0
 51126  1  0  0  0
M  END
$$$$
