P8H
  CCTOOLS-0919241031

 40 42  0  0  0  0  0  0  0  0999 V2000
    3.2340   -0.1070   -0.2800 C   0  0  0  0  0
    3.7150    0.5010   -1.4270 C   0  0  0  0  0
    3.1190    1.5630   -1.9360 N   0  0  0  0  0
    2.0490    2.0920   -1.3820 C   0  0  0  0  0
    1.5010    1.5390   -0.2230 C   0  0  0  0  0
    2.1100    0.4120    0.3400 C   0  0  0  0  0
    0.2990    2.1340    0.3980 C   0  0  0  0  0
    4.0980   -1.6330    0.4270 BR  0  0  0  0  0
    0.2590    3.3280    0.6240 O   0  0  0  0  0
   -0.7530    1.3530    0.7140 N   0  0  0  0  0
   -0.6890   -0.1030    0.5230 C   0  0  0  0  0
   -1.8870   -0.5420   -0.3240 C   0  0  0  0  0
   -1.9840    1.9400    1.2600 C   0  0  0  0  0
   -3.1710    1.4820    0.4060 C   0  0  0  0  0
   -3.1790   -0.0510    0.3320 C   0  0  0  0  0
   -4.3320   -0.4990   -0.4600 N   0  0  0  0  0
   -4.4100   -1.9820   -0.4940 C   0  0  0  0  0
   -5.8870   -2.2500   -0.8770 C   0  0  0  0  0
   -6.6490   -1.1400   -0.1180 C   0  0  0  0  0
   -5.6010   -0.0420    0.1460 C   0  0  0  0  0
    4.5910    0.1000   -1.9130 H   0  0  0  0  0
    1.5900    2.9620   -1.8280 H   0  0  0  0  0
    1.7100   -0.0450    1.2340 H   0  0  0  0  0
    0.2370   -0.3630    0.0100 H   0  0  0  0  0
   -0.7250   -0.6000    1.4920 H   0  0  0  0  0
   -1.8020   -0.1160   -1.3240 H   0  0  0  0  0
   -1.9040   -1.6300   -0.3940 H   0  0  0  0  0
   -2.1230    1.6050    2.2880 H   0  0  0  0  0
   -1.9130    3.0270    1.2340 H   0  0  0  0  0
   -4.0990    1.8320    0.8570 H   0  0  0  0  0
   -3.0760    1.8940   -0.5980 H   0  0  0  0  0
   -3.2510   -0.4580    1.3410 H   0  0  0  0  0
   -3.7370   -2.3860   -1.2500 H   0  0  0  0  0
   -4.1850   -2.4020    0.4870 H   0  0  0  0  0
   -6.0310   -2.1500   -1.9530 H   0  0  0  0  0
   -6.2020   -3.2360   -0.5350 H   0  0  0  0  0
   -7.4600   -0.7490   -0.7330 H   0  0  0  0  0
   -7.0400   -1.5250    0.8230 H   0  0  0  0  0
   -5.4720    0.0970    1.2190 H   0  0  0  0  0
   -5.9180    0.8930   -0.3170 H   0  0  0  0  0
  1  6  1  0  0  0
  1  8  1  0  0  0
  2  1  2  0  0  0
  2 21  1  0  0  0
  3  2  1  0  0  0
  3  4  2  0  0  0
  4  5  1  0  0  0
  4 22  1  0  0  0
  5  6  2  0  0  0
  6 23  1  0  0  0
  7  5  1  0  0  0
  7  9  2  0  0  0
 10  7  1  0  0  0
 11 10  1  0  0  0
 11 12  1  0  0  0
 11 24  1  0  0  0
 11 25  1  0  0  0
 12 26  1  0  0  0
 12 27  1  0  0  0
 13 10  1  0  0  0
 13 14  1  0  0  0
 13 28  1  0  0  0
 13 29  1  0  0  0
 14 30  1  0  0  0
 14 31  1  0  0  0
 15 12  1  0  0  0
 15 14  1  0  0  0
 15 16  1  0  0  0
 15 32  1  0  0  0
 16 20  1  0  0  0
 17 16  1  0  0  0
 17 18  1  0  0  0
 17 33  1  0  0  0
 17 34  1  0  0  0
 18 19  1  0  0  0
 18 35  1  0  0  0
 18 36  1  0  0  0
 19 37  1  0  0  0
 19 38  1  0  0  0
 20 19  1  0  0  0
 20 39  1  0  0  0
 20 40  1  0  0  0
M  END
$$$$
