P9B
  CCTOOLS-0919241031

 33 34  0  0  0  0  0  0  0  0999 V2000
   -4.3920    0.0720    0.0150 C   0  0  0  0  0
   -6.7350    0.4230    1.4140 N   0  0  0  0  0
   -6.7240   -0.4450   -0.8960 O   0  0  0  0  0
   -6.0010   -0.5790    0.3190 S   0  0  0  0  0
   -3.3240   -0.3350    0.7940 C   0  0  0  0  0
   -5.8120   -1.8240    0.9780 O   0  0  0  0  0
   -2.0620    0.1740    0.5580 C   0  0  0  0  0
   -1.8650    1.0940   -0.4640 C   0  0  0  0  0
   -2.9390    1.5000   -1.2450 C   0  0  0  0  0
   -4.1980    0.9840   -1.0070 C   0  0  0  0  0
   -0.5870    1.6100   -0.7050 N   0  0  0  0  0
    0.5040    0.8840   -0.3920 C   0  0  0  0  0
    0.3790   -0.2530    0.0210 O   0  0  0  0  0
    1.7330    1.4180   -0.5350 N   0  0  0  0  0
    2.8710    0.6400   -0.2760 C   0  0  0  0  0
    2.8650   -0.7190   -0.5680 C   0  0  0  0  0
    1.7640   -1.2910   -1.1020 F   0  0  0  0  0
    3.9900   -1.4860   -0.3120 C   0  0  0  0  0
    3.9850   -2.8060   -0.5960 F   0  0  0  0  0
    5.1200   -0.8990    0.2350 C   0  0  0  0  0
    6.2160   -1.6490    0.4840 F   0  0  0  0  0
    5.1270    0.4560    0.5260 C   0  0  0  0  0
    6.2300    1.0260    1.0590 F   0  0  0  0  0
    4.0060    1.2270    0.2670 C   0  0  0  0  0
    4.0160    2.5490    0.5470 F   0  0  0  0  0
   -7.6990    0.5300    1.4030 H   0  0  0  0  0
   -3.4780   -1.0500    1.5890 H   0  0  0  0  0
   -1.2290   -0.1440    1.1670 H   0  0  0  0  0
   -2.7900    2.2150   -2.0390 H   0  0  0  0  0
   -5.0340    1.2990   -1.6130 H   0  0  0  0  0
   -0.4870    2.4910   -1.0990 H   0  0  0  0  0
    1.8310    2.3410   -0.8180 H   0  0  0  0  0
   -6.2020    0.9020    2.0670 H   0  0  0  0  0
  1  4  1  0  0  0
  2 26  1  0  0  0
  2  4  1  0  0  0
  2 33  1  0  0  0
  4  3  2  0  0  0
  5  1  1  0  0  0
  5 27  1  0  0  0
  6  4  2  0  0  0
  7  5  2  0  0  0
  8  7  1  0  0  0
  8  9  2  0  0  0
  9 10  1  0  0  0
 10  1  2  0  0  0
 10 30  1  0  0  0
 11  8  1  0  0  0
 11 31  1  0  0  0
 12 11  1  0  0  0
 13 12  2  0  0  0
 14 12  1  0  0  0
 14 15  1  0  0  0
 15 16  1  0  0  0
 16 18  2  0  0  0
 16 17  1  0  0  0
 18 19  1  0  0  0
 20 18  1  0  0  0
 20 21  1  0  0  0
 22 20  2  0  0  0
 23 22  1  0  0  0
 24 15  2  0  0  0
 24 22  1  0  0  0
 25 24  1  0  0  0
 28  7  1  0  0  0
 29  9  1  0  0  0
 32 14  1  0  0  0
M  END
$$$$
