PAF
  CCTOOLS-0919241031

 21 20  0  0  1  0  0  0  0  0999 V2000
    2.5730   -0.4740   -0.5120 O   0  5  0  0  0
    1.7720    0.1960    0.1180 C   0  0  0  0  0
    1.9840    1.3820    0.3080 O   0  0  0  0  0
    0.5200   -0.4420    0.6620 C   0  0  0  0  0
    0.5550   -1.8490    0.4130 O   0  0  0  0  0
   -0.7040    0.1670   -0.0250 C   0  0  0  0  0
   -0.6180   -0.0810   -1.5330 C   0  0  0  0  0
   -0.7410    1.6730    0.2420 C   0  0  0  0  0
   -1.9750   -0.4810    0.5270 C   0  0  0  0  0
   -3.1170    0.0890   -0.1150 O   0  0  0  0  0
    0.4590   -0.2650    1.7360 H   0  0  0  0  0
    0.6080   -1.9620   -0.5460 H   0  0  0  0  0
    0.2880    0.3800   -1.9260 H   0  0  0  0  0
   -0.5910   -1.1540   -1.7230 H   0  0  0  0  0
   -1.4900    0.3530   -2.0230 H   0  0  0  0  0
   -1.6130    2.1080   -0.2480 H   0  0  0  0  0
   -0.8020    1.8500    1.3160 H   0  0  0  0  0
    0.1650    2.1350   -0.1520 H   0  0  0  0  0
   -1.9480   -1.5530    0.3370 H   0  0  0  0  0
   -2.0360   -0.3030    1.6010 H   0  0  0  0  0
   -3.8950   -0.3460    0.2610 H   0  0  0  0  0
  1  2  1  0  0  0
  2  3  2  0  0  0
  2  4  1  0  0  0
  4  5  1  0  0  0
  4  6  1  0  0  0
  4 11  1  0  0  0
  5 12  1  0  0  0
  6  7  1  0  0  0
  6  8  1  0  0  0
  6  9  1  0  0  0
  7 13  1  0  0  0
  7 14  1  0  0  0
  7 15  1  0  0  0
  8 16  1  0  0  0
  8 17  1  0  0  0
  8 18  1  0  0  0
  9 10  1  0  0  0
  9 19  1  0  0  0
  9 20  1  0  0  0
 10 21  1  0  0  0
M  CHG  1   1  -1
M  END
$$$$
