PAJ
  CCTOOLS-0919241031

 56 58  0  0  1  0  0  0  0  0999 V2000
    0.9140    0.7710    2.4140 P   0  0  0  0  0
    2.2560    0.6570    3.0280 O   0  0  0  0  0
    0.6600    2.2940    1.9580 O   0  0  0  0  0
    0.8280   -0.1940    1.1290 O   0  0  0  0  0
    1.8410    0.2380    0.2190 C   0  0  0  0  0
    1.8140   -0.6430   -1.0300 C   0  0  0  0  0
    0.5430   -0.5160   -1.6910 O   0  0  0  0  0
    2.8980   -0.1800   -2.0220 C   0  0  0  0  0
    3.8330   -1.2300   -2.2790 O   0  0  0  0  0
    2.1060    0.1670   -3.3100 C   0  0  0  0  0
    2.8020   -0.2820   -4.4740 O   0  0  0  0  0
    0.7920   -0.6290   -3.1080 C   0  0  0  0  0
   -0.3020   -0.0280   -3.8740 N   0  0  0  0  0
   -1.1040    0.9950   -3.4660 C   0  0  0  0  0
   -1.9710    1.2780   -4.3940 N   0  0  0  0  0
   -1.7810    0.4560   -5.4540 C   0  0  0  0  0
   -2.3970    0.3010   -6.7070 C   0  0  0  0  0
   -3.4580    1.1070   -7.0790 N   0  0  0  0  0
   -1.9370   -0.6380   -7.5270 N   0  0  0  0  0
   -0.9250   -1.4110   -7.1810 C   0  0  0  0  0
   -0.3170   -1.3020   -6.0180 N   0  0  0  0  0
   -0.7040   -0.3880   -5.1350 C   0  0  0  0  0
    0.4150    1.9360    4.8810 O   0  0  0  0  0
   -0.3200    1.0080    4.6440 C   0  0  0  0  0
   -0.2050    0.3380    3.4870 O   0  0  0  0  0
   -1.3680    0.6030    5.6480 C   0  0  0  0  0
   -1.2920    1.4600    6.7890 O   0  0  0  0  0
   -1.1270   -0.8440    6.0820 C   0  0  0  0  0
    0.2590   -0.9610    6.7170 C   0  0  0  0  0
   -1.2080   -1.7620    4.8610 C   0  0  0  0  0
   -2.1910   -1.2550    7.1010 C   0  0  0  0  0
   -1.9650   -2.6070    7.5060 O   0  0  0  0  0
   -0.2220    2.3240    1.5640 H   0  0  0  0  0
    1.6570    1.2740   -0.0630 H   0  0  0  0  0
    2.8170    0.1590    0.6970 H   0  0  0  0  0
    1.9850   -1.6840   -0.7540 H   0  0  0  0  0
    3.4120    0.7010   -1.6410 H   0  0  0  0  0
    4.4470   -0.9000   -2.9490 H   0  0  0  0  0
    1.9060    1.2370   -3.3680 H   0  0  0  0  0
    3.6060    0.2500   -4.5420 H   0  0  0  0  0
    0.9290   -1.6730   -3.3920 H   0  0  0  0  0
   -1.0320    1.4970   -2.5120 H   0  0  0  0  0
   -3.8760    0.9900   -7.9470 H   0  0  0  0  0
   -3.7850    1.7900   -6.4720 H   0  0  0  0  0
   -0.5820   -2.1630   -7.8780 H   0  0  0  0  0
   -2.3560    0.6860    5.1960 H   0  0  0  0  0
   -0.4050    1.3560    7.1580 H   0  0  0  0  0
    0.3170   -0.3070    7.5870 H   0  0  0  0  0
    0.4320   -1.9920    7.0250 H   0  0  0  0  0
    1.0180   -0.6680    5.9900 H   0  0  0  0  0
   -2.1960   -1.6780    4.4080 H   0  0  0  0  0
   -0.4500   -1.4690    4.1340 H   0  0  0  0  0
   -1.0360   -2.7930    5.1690 H   0  0  0  0  0
   -2.1330   -0.6010    7.9710 H   0  0  0  0  0
   -3.1790   -1.1720    6.6490 H   0  0  0  0  0
   -2.6560   -2.8260    8.1460 H   0  0  0  0  0
  1  2  2  0  0  0
  1  3  1  0  0  0
  1  4  1  0  0  0
  1 25  1  0  0  0
  3 33  1  0  0  0
  4  5  1  0  0  0
  5  6  1  0  0  0
  5 34  1  0  0  0
  5 35  1  0  0  0
  6  7  1  0  0  0
  6  8  1  0  0  0
  6 36  1  0  0  0
  7 12  1  0  0  0
  8  9  1  0  0  0
  8 10  1  0  0  0
  8 37  1  0  0  0
  9 38  1  0  0  0
 10 11  1  0  0  0
 10 12  1  0  0  0
 10 39  1  0  0  0
 11 40  1  0  0  0
 12 13  1  0  0  0
 12 41  1  0  0  0
 13 14  1  0  0  0
 13 22  1  0  0  0
 14 15  2  0  0  0
 14 42  1  0  0  0
 15 16  1  0  0  0
 16 17  2  0  0  0
 16 22  1  0  0  0
 17 18  1  0  0  0
 17 19  1  0  0  0
 18 43  1  0  0  0
 18 44  1  0  0  0
 19 20  2  0  0  0
 20 21  1  0  0  0
 20 45  1  0  0  0
 21 22  2  0  0  0
 23 24  2  0  0  0
 24 25  1  0  0  0
 24 26  1  0  0  0
 26 27  1  0  0  0
 26 28  1  0  0  0
 26 46  1  0  0  0
 27 47  1  0  0  0
 28 29  1  0  0  0
 28 30  1  0  0  0
 28 31  1  0  0  0
 29 48  1  0  0  0
 29 49  1  0  0  0
 29 50  1  0  0  0
 30 51  1  0  0  0
 30 52  1  0  0  0
 30 53  1  0  0  0
 31 32  1  0  0  0
 31 54  1  0  0  0
 31 55  1  0  0  0
 32 56  1  0  0  0
M  END
$$$$
