PAL
  CCTOOLS-0919241031

 26 25  0  0  1  0  0  0  0  0999 V2000
    0.3550    0.2440   -2.8740 P   0  0  0  0  0
   -0.3520    1.4470   -2.3850 O   0  0  0  0  0
    1.2950    0.6430   -4.1190 O   0  0  0  0  0
   -0.7200   -0.8570   -3.3450 O   0  0  0  0  0
    1.3810   -0.4430   -1.5330 C   0  0  0  0  0
    0.5020   -0.8170   -0.3680 C   0  0  0  0  0
    0.0260   -1.9310   -0.3010 O   0  0  0  0  0
    0.2440    0.0850    0.5970 N   0  0  0  0  0
   -0.6110   -0.2770    1.7300 C   0  0  0  0  0
   -2.0460    0.0410    1.3980 C   0  0  0  0  0
   -2.9380   -0.6160    1.8790 O   0  0  0  0  0
   -2.3330    1.0570    0.5690 O   0  0  0  0  0
   -0.1840    0.5150    2.9660 C   0  0  0  0  0
    1.2500    0.1960    3.2980 C   0  0  0  0  0
    1.8680   -0.5860    2.6150 O   0  0  0  0  0
    1.8420    0.7800    4.3510 O   0  0  0  0  0
    0.7140    1.0020   -4.8040 H   0  0  0  0  0
   -0.2180   -1.6230   -3.6560 H   0  0  0  0  0
    2.1100    0.3010   -1.2140 H   0  0  0  0  0
    1.9030   -1.3300   -1.8940 H   0  0  0  0  0
    0.6240    0.9760    0.5430 H   0  0  0  0  0
   -0.5130   -1.3440    1.9310 H   0  0  0  0  0
   -3.2540    1.2620    0.3560 H   0  0  0  0  0
   -0.8200    0.2450    3.8090 H   0  0  0  0  0
   -0.2820    1.5820    2.7650 H   0  0  0  0  0
    2.7620    0.5750    4.5640 H   0  0  0  0  0
  1  2  2  0  0  0
  1  3  1  0  0  0
  1  4  1  0  0  0
  1  5  1  0  0  0
  3 17  1  0  0  0
  4 18  1  0  0  0
  5  6  1  0  0  0
  5 19  1  0  0  0
  5 20  1  0  0  0
  6  7  2  0  0  0
  6  8  1  0  0  0
  8  9  1  0  0  0
  8 21  1  0  0  0
  9 10  1  0  0  0
  9 13  1  0  0  0
  9 22  1  0  0  0
 10 11  2  0  0  0
 10 12  1  0  0  0
 12 23  1  0  0  0
 13 14  1  0  0  0
 13 24  1  0  0  0
 13 25  1  0  0  0
 14 15  2  0  0  0
 14 16  1  0  0  0
 16 26  1  0  0  0
M  END
$$$$
