PAM
  CCTOOLS-1004241119

 48 47  0  0  0  0  0  0  0  0999 V2000
    0.9300   -0.1740   -7.3090 C   0  0  0  0  0
    1.8230    0.0430   -8.2880 O   0  0  0  0  0
   -0.1000   -0.7550   -7.5510 O   0  0  0  0  0
    1.2140    0.3060   -5.9090 C   0  0  0  0  0
    0.0450   -0.0670   -4.9950 C   0  0  0  0  0
    0.3340    0.4200   -3.5740 C   0  0  0  0  0
   -0.8340    0.0470   -2.6600 C   0  0  0  0  0
   -0.5460    0.5350   -1.2380 C   0  0  0  0  0
   -1.7140    0.1620   -0.3240 C   0  0  0  0  0
   -1.4260    0.6500    1.0960 C   0  0  0  0  0
   -2.5770    0.2820    1.9970 C   0  0  0  0  0
   -2.3550   -0.3770    3.1070 C   0  0  0  0  0
   -0.9420   -0.6310    3.5630 C   0  0  0  0  0
   -0.7780   -0.1530    5.0060 C   0  0  0  0  0
    0.6570   -0.4110    5.4690 C   0  0  0  0  0
    0.8210    0.0670    6.9130 C   0  0  0  0  0
    2.2560   -0.1900    7.3760 C   0  0  0  0  0
    2.4200    0.2870    8.8200 C   0  0  0  0  0
    1.6410   -0.2640   -9.1860 H   0  0  0  0  0
    1.3390    1.3890   -5.9150 H   0  0  0  0  0
    2.1270   -0.1620   -5.5420 H   0  0  0  0  0
   -0.0790   -1.1490   -4.9890 H   0  0  0  0  0
   -0.8660    0.4020   -5.3620 H   0  0  0  0  0
    0.4590    1.5030   -3.5800 H   0  0  0  0  0
    1.2470   -0.0480   -3.2070 H   0  0  0  0  0
   -0.9590   -1.0350   -2.6540 H   0  0  0  0  0
   -1.7470    0.5160   -3.0270 H   0  0  0  0  0
   -0.4210    1.6180   -1.2440 H   0  0  0  0  0
    0.3660    0.0660   -0.8710 H   0  0  0  0  0
   -1.8390   -0.9200   -0.3180 H   0  0  0  0  0
   -2.6270    0.6310   -0.6910 H   0  0  0  0  0
   -1.3010    1.7320    1.0900 H   0  0  0  0  0
   -0.5130    0.1800    1.4630 H   0  0  0  0  0
   -3.5840    0.5620    1.7270 H   0  0  0  0  0
   -3.1860   -0.7390    3.6950 H   0  0  0  0  0
   -0.2490   -0.0890    2.9190 H   0  0  0  0  0
   -0.7290   -1.6990    3.5070 H   0  0  0  0  0
   -1.4700   -0.6950    5.6500 H   0  0  0  0  0
   -0.9910    0.9140    5.0620 H   0  0  0  0  0
    1.3490    0.1310    4.8260 H   0  0  0  0  0
    0.8700   -1.4780    5.4140 H   0  0  0  0  0
    0.1280   -0.4750    7.5570 H   0  0  0  0  0
    0.6080    1.1340    6.9680 H   0  0  0  0  0
    2.9490    0.3510    6.7330 H   0  0  0  0  0
    2.4690   -1.2580    7.3210 H   0  0  0  0  0
    3.4430    0.1030    9.1500 H   0  0  0  0  0
    2.2070    1.3550    8.8750 H   0  0  0  0  0
    1.7280   -0.2540    9.4640 H   0  0  0  0  0
  1  2  1  0  0  0
  1  3  2  0  0  0
  1  4  1  0  0  0
  2 19  1  0  0  0
  4  5  1  0  0  0
  4 20  1  0  0  0
  4 21  1  0  0  0
  5  6  1  0  0  0
  5 22  1  0  0  0
  5 23  1  0  0  0
  6  7  1  0  0  0
  6 24  1  0  0  0
  6 25  1  0  0  0
  7  8  1  0  0  0
  7 26  1  0  0  0
  7 27  1  0  0  0
  8  9  1  0  0  0
  8 28  1  0  0  0
  8 29  1  0  0  0
  9 10  1  0  0  0
  9 30  1  0  0  0
  9 31  1  0  0  0
 10 11  1  0  0  0
 10 32  1  0  0  0
 10 33  1  0  0  0
 11 12  2  0  0  0
 11 34  1  0  0  0
 12 13  1  0  0  0
 12 35  1  0  0  0
 13 14  1  0  0  0
 13 36  1  0  0  0
 13 37  1  0  0  0
 14 15  1  0  0  0
 14 38  1  0  0  0
 14 39  1  0  0  0
 15 16  1  0  0  0
 15 40  1  0  0  0
 15 41  1  0  0  0
 16 17  1  0  0  0
 16 42  1  0  0  0
 16 43  1  0  0  0
 17 18  1  0  0  0
 17 44  1  0  0  0
 17 45  1  0  0  0
 18 46  1  0  0  0
 18 47  1  0  0  0
 18 48  1  0  0  0
M  END
$$$$
