PAU
  CCTOOLS-0919241031

 32 31  0  0  1  0  0  0  0  0999 V2000
    2.8890    2.0000    1.4450 O   0  0  0  0  0
    2.4420    0.4730   -0.3740 C   0  0  0  0  0
    2.3990    0.6920    1.1400 C   0  0  0  0  0
    1.5680    1.5200   -1.0660 C   0  0  0  0  0
    3.8840    0.6060   -0.8680 C   0  0  0  0  0
    1.9180   -0.9260   -0.7020 C   0  0  0  0  0
    2.8090   -1.9070   -0.1670 O   0  0  0  0  0
    0.5510   -1.1060   -0.0930 C   0  0  0  0  0
    0.3920   -1.8850    0.8230 O   0  0  0  0  0
   -0.4960   -0.4000   -0.5670 N   0  0  0  0  0
   -1.8030   -0.5020    0.0870 C   0  0  0  0  0
   -2.8080    0.3920   -0.6420 C   0  0  0  0  0
   -4.1530    0.2880    0.0290 C   0  0  0  0  0
   -5.1950    0.9910   -0.4420 O   0  0  0  0  0
   -4.2930   -0.4280    0.9930 O   0  0  0  0  0
    2.8910    2.2080    2.3900 H   0  0  0  0  0
    3.0220   -0.0540    1.6330 H   0  0  0  0  0
    1.3720    0.5980    1.4910 H   0  0  0  0  0
    2.0060    2.5090   -0.9280 H   0  0  0  0  0
    1.5070    1.2960   -2.1310 H   0  0  0  0  0
    0.5680    1.5030   -0.6330 H   0  0  0  0  0
    4.4950   -0.1790   -0.4210 H   0  0  0  0  0
    3.9070    0.5100   -1.9530 H   0  0  0  0  0
    4.2780    1.5810   -0.5810 H   0  0  0  0  0
    1.8520   -1.0460   -1.7830 H   0  0  0  0  0
    2.9160   -1.8590    0.7930 H   0  0  0  0  0
   -0.3830    0.1740   -1.3400 H   0  0  0  0  0
   -2.1460   -1.5360    0.0540 H   0  0  0  0  0
   -1.7170   -0.1800    1.1250 H   0  0  0  0  0
   -2.4650    1.4260   -0.6100 H   0  0  0  0  0
   -2.8940    0.0710   -1.6800 H   0  0  0  0  0
   -6.0370    0.8910    0.0220 H   0  0  0  0  0
  1  3  1  0  0  0
  1 16  1  0  0  0
  2  3  1  0  0  0
  2  4  1  0  0  0
  2  5  1  0  0  0
  2  6  1  0  0  0
  3 17  1  0  0  0
  3 18  1  0  0  0
  4 19  1  0  0  0
  4 20  1  0  0  0
  4 21  1  0  0  0
  5 22  1  0  0  0
  5 23  1  0  0  0
  5 24  1  0  0  0
  6  7  1  0  0  0
  6  8  1  0  0  0
  6 25  1  0  0  0
  7 26  1  0  0  0
  8  9  2  0  0  0
  8 10  1  0  0  0
 10 11  1  0  0  0
 10 27  1  0  0  0
 11 12  1  0  0  0
 11 28  1  0  0  0
 11 29  1  0  0  0
 12 13  1  0  0  0
 12 30  1  0  0  0
 12 31  1  0  0  0
 13 14  1  0  0  0
 13 15  2  0  0  0
 14 32  1  0  0  0
M  END
$$$$
