PAZ
  CCTOOLS-0919241031

 37 36  0  0  1  0  0  0  0  0999 V2000
    4.1540   -1.0100   -1.3040 O   0  0  0  0  0
    3.1670   -1.5510   -0.1530 P   0  0  0  0  0
    2.1590   -2.4550   -0.7510 O   0  0  0  0  0
    4.0200   -2.3540    0.9510 O   0  0  0  0  0
    2.4230   -0.3060    0.5460 O   0  0  0  0  0
    1.5050    0.5410   -0.1480 C   0  0  0  0  0
    0.9850    1.6190    0.8060 C   0  0  0  0  0
    0.2740    0.9550    1.9870 C   0  0  0  0  0
    2.1590    2.4540    1.3210 C   0  0  0  0  0
    0.0010    2.5260    0.0630 C   0  0  0  0  0
    0.6950    3.2450   -0.9590 O   0  0  0  0  0
   -1.0830    1.6860   -0.5620 C   0  0  0  0  0
   -1.1480    1.5800   -1.7680 O   0  0  0  0  0
   -1.9800    1.0530    0.2200 N   0  0  0  0  0
   -2.9730    0.1590   -0.3800 C   0  0  0  0  0
   -3.8620   -0.4270    0.7190 C   0  0  0  0  0
   -4.8840   -1.3460    0.1010 C   0  0  0  0  0
   -4.9000   -1.5160   -1.0950 O   0  0  0  0  0
   -5.7770   -1.9770    0.8800 O   0  0  0  0  0
    4.8410   -0.4100   -0.9840 H   0  0  0  0  0
    4.4960   -3.1190    0.6000 H   0  0  0  0  0
    2.0110    1.0150   -0.9890 H   0  0  0  0  0
    0.6690   -0.0530   -0.5150 H   0  0  0  0  0
    0.9990    0.3990    2.5810 H   0  0  0  0  0
   -0.1930    1.7200    2.6060 H   0  0  0  0  0
   -0.4900    0.2720    1.6140 H   0  0  0  0  0
    2.6150    2.9910    0.4900 H   0  0  0  0  0
    1.7990    3.1680    2.0620 H   0  0  0  0  0
    2.8990    1.7970    1.7780 H   0  0  0  0  0
   -0.4440    3.2300    0.7650 H   0  0  0  0  0
    1.1170    2.6800   -1.6200 H   0  0  0  0  0
   -1.9670    1.1890    1.1810 H   0  0  0  0  0
   -3.5870    0.7200   -1.0850 H   0  0  0  0  0
   -2.4640   -0.6500   -0.9050 H   0  0  0  0  0
   -3.2480   -0.9880    1.4230 H   0  0  0  0  0
   -4.3710    0.3820    1.2440 H   0  0  0  0  0
   -6.4130   -2.5560    0.4380 H   0  0  0  0  0
  1  2  1  0  0  0
  1 20  1  0  0  0
  2  4  1  0  0  0
  2  5  1  0  0  0
  3  2  2  0  0  0
  4 21  1  0  0  0
  5  6  1  0  0  0
  6  7  1  0  0  0
  6 22  1  0  0  0
  6 23  1  0  0  0
  7 10  1  0  0  0
  7  9  1  0  0  0
  8  7  1  0  0  0
  8 24  1  0  0  0
  8 25  1  0  0  0
  8 26  1  0  0  0
  9 27  1  0  0  0
  9 28  1  0  0  0
  9 29  1  0  0  0
 10 12  1  0  0  0
 10 11  1  0  0  0
 10 30  1  0  0  0
 11 31  1  0  0  0
 12 14  1  0  0  0
 13 12  2  0  0  0
 14 15  1  0  0  0
 14 32  1  0  0  0
 15 16  1  0  0  0
 15 33  1  0  0  0
 15 34  1  0  0  0
 16 17  1  0  0  0
 16 35  1  0  0  0
 16 36  1  0  0  0
 17 19  1  0  0  0
 18 17  2  0  0  0
 19 37  1  0  0  0
M  END
$$$$
