PB1
  CCTOOLS-0919241031

 36 35  0  0  1  0  0  0  0  0999 V2000
    0.0500   -0.3610   -5.1540 O   0  0  0  0  0
    0.1190    0.1850   -3.9310 C   0  0  0  0  0
    0.5640    1.3000   -3.7910 O   0  0  0  0  0
   -0.3590   -0.5890   -2.7310 C   0  0  0  0  0
   -0.1720    0.2550   -1.4690 C   0  0  0  0  0
   -0.5280   -0.5800   -0.2380 C   0  0  0  0  0
   -2.0180   -0.9230   -0.2680 C   0  0  0  0  0
   -2.8070    0.3150   -0.2350 N   0  0  0  0  0
   -0.2140    0.2180    1.0280 C   0  0  0  0  0
   -0.5690   -0.6170    2.2590 C   0  0  0  0  0
   -0.3990    0.2190    3.5010 C   0  0  0  0  0
   -0.1510    1.3980    3.4050 O   0  0  0  0  0
   -0.5210   -0.3440    4.7130 O   0  0  0  0  0
    1.2760    0.5610    1.0580 C   0  0  0  0  0
    2.0980   -0.7210    0.9240 C   0  0  0  0  0
    3.5290   -0.3940    0.9780 N   0  0  0  0  0
    0.3570    0.1360   -5.9240 H   0  0  0  0  0
    0.2160   -1.5100   -2.6400 H   0  0  0  0  0
   -1.4150   -0.8320   -2.8520 H   0  0  0  0  0
   -0.8230    1.1280   -1.5160 H   0  0  0  0  0
    0.8650    0.5800   -1.4000 H   0  0  0  0  0
    0.0560   -1.5000   -0.2420 H   0  0  0  0  0
   -2.2680   -1.5350    0.5980 H   0  0  0  0  0
   -2.2460   -1.4750   -1.1800 H   0  0  0  0  0
   -3.7730    0.0470   -0.3480 H   0  0  0  0  0
   -2.7170    0.6910    0.6950 H   0  0  0  0  0
   -0.7990    1.1380    1.0320 H   0  0  0  0  0
    0.0880   -1.4840    2.3120 H   0  0  0  0  0
   -1.6050   -0.9500    2.1850 H   0  0  0  0  0
   -0.4120    0.1920    5.5090 H   0  0  0  0  0
    1.5170    1.0510    2.0020 H   0  0  0  0  0
    1.5110    1.2310    0.2310 H   0  0  0  0  0
    1.8490   -1.3990    1.7410 H   0  0  0  0  0
    1.8700   -1.2010   -0.0270 H   0  0  0  0  0
    4.0290   -1.2660    0.8870 H   0  0  0  0  0
    3.7340    0.1450    0.1510 H   0  0  0  0  0
  1  2  1  0  0  0
  1 17  1  0  0  0
  2  3  2  0  0  0
  2  4  1  0  0  0
  4  5  1  0  0  0
  4 18  1  0  0  0
  4 19  1  0  0  0
  5  6  1  0  0  0
  5 20  1  0  0  0
  5 21  1  0  0  0
  6  7  1  0  0  0
  6  9  1  0  0  0
  6 22  1  0  0  0
  7  8  1  0  0  0
  7 23  1  0  0  0
  7 24  1  0  0  0
  8 25  1  0  0  0
  8 26  1  0  0  0
  9 10  1  0  0  0
  9 14  1  0  0  0
  9 27  1  0  0  0
 10 11  1  0  0  0
 10 28  1  0  0  0
 10 29  1  0  0  0
 11 12  2  0  0  0
 11 13  1  0  0  0
 13 30  1  0  0  0
 14 15  1  0  0  0
 14 31  1  0  0  0
 14 32  1  0  0  0
 15 16  1  0  0  0
 15 33  1  0  0  0
 15 34  1  0  0  0
 16 35  1  0  0  0
 16 36  1  0  0  0
M  END
$$$$
