PBS
  CCTOOLS-0919241031

105105  0  0  1  0  0  0  0  0999 V2000
   17.2990   -1.3700    0.7850 C   0  0  0  0  0
   16.1220   -0.4020    0.9190 C   0  0  0  0  0
   14.8300   -1.1110    0.5080 C   0  0  0  0  0
   13.6530   -0.1420    0.6420 C   0  0  0  0  0
   12.3600   -0.8510    0.2310 C   0  0  0  0  0
   11.1830    0.1170    0.3650 C   0  0  0  0  0
    9.8910   -0.5920   -0.0460 C   0  0  0  0  0
    8.7140    0.3760    0.0880 C   0  0  0  0  0
    7.4210   -0.3330   -0.3230 C   0  0  0  0  0
    6.2440    0.6360   -0.1890 C   0  0  0  0  0
    4.9520   -0.0730   -0.6000 C   0  0  0  0  0
    3.7750    0.8950   -0.4660 C   0  0  0  0  0
    2.4820    0.1860   -0.8770 C   0  0  0  0  0
    1.3050    1.1540   -0.7430 C   0  0  0  0  0
    0.0130    0.4450   -1.1540 C   0  0  0  0  0
   -0.2620   -0.6140   -0.2350 O   0  0  0  0  0
   -1.1440    1.4460   -1.1400 C   0  0  0  0  0
   -0.8690    2.5050   -2.0590 O   0  0  0  0  0
   -2.4360    0.7380   -1.5510 C   0  0  0  0  0
   -2.7890   -0.2610   -0.5380 N   0  0  0  0  0
   -3.5460   -1.3240   -0.8750 C   0  0  0  0  0
   -3.9350   -1.4550   -2.0160 O   0  0  0  0  0
   -3.9080   -2.3510    0.1670 C   0  0  0  0  0
   -4.7660   -3.4450   -0.4720 C   0  0  0  0  0
   -5.1340   -4.4870    0.5860 C   0  0  0  0  0
   -5.9910   -5.5810   -0.0530 C   0  0  0  0  0
   -6.3590   -6.6240    1.0050 C   0  0  0  0  0
   -7.2170   -7.7180    0.3650 C   0  0  0  0  0
   -7.5850   -8.7600    1.4230 C   0  0  0  0  0
   -3.5650    1.7640   -1.6700 C   0  0  0  0  0
   -3.6870    2.4820   -0.4410 O   0  0  0  0  0
   -4.7520    3.4200   -0.6150 C   0  0  0  0  0
   -5.9930    2.7210   -0.6860 O   0  0  0  0  0
   -6.0740    1.8700    0.4560 C   0  0  0  0  0
   -7.2980    0.9610    0.3270 C   0  0  0  0  0
   -7.1250    0.0840   -0.7880 O   0  0  0  0  0
   -6.2020    2.7150    1.7250 C   0  0  0  0  0
   -7.3660    3.5390    1.6360 O   0  0  0  0  0
   -4.9560    3.5980    1.8640 C   0  0  0  0  0
   -5.1270    4.4980    2.9610 O   0  0  0  0  0
   -4.7720    4.3920    0.5670 C   0  0  0  0  0
   -3.5380    5.1100    0.6170 O   0  0  0  0  0
   17.1360   -2.2320    1.4320 H   0  0  0  0  0
   17.3810   -1.7030   -0.2500 H   0  0  0  0  0
   18.2200   -0.8650    1.0780 H   0  0  0  0  0
   16.0410   -0.0690    1.9530 H   0  0  0  0  0
   16.2850    0.4600    0.2710 H   0  0  0  0  0
   14.9110   -1.4430   -0.5270 H   0  0  0  0  0
   14.6670   -1.9720    1.1550 H   0  0  0  0  0
   13.5720    0.1900    1.6760 H   0  0  0  0  0
   13.8160    0.7190   -0.0060 H   0  0  0  0  0
   12.4420   -1.1840   -0.8040 H   0  0  0  0  0
   12.1970   -1.7130    0.8780 H   0  0  0  0  0
   11.1020    0.4500    1.3990 H   0  0  0  0  0
   11.3460    0.9790   -0.2830 H   0  0  0  0  0
    9.9720   -0.9250   -1.0810 H   0  0  0  0  0
    9.7280   -1.4540    0.6010 H   0  0  0  0  0
    8.6330    0.7090    1.1220 H   0  0  0  0  0
    8.8770    1.2380   -0.5600 H   0  0  0  0  0
    7.5030   -0.6650   -1.3580 H   0  0  0  0  0
    7.2580   -1.1940    0.3240 H   0  0  0  0  0
    6.1630    0.9680    0.8450 H   0  0  0  0  0
    6.4070    1.4970   -0.8370 H   0  0  0  0  0
    5.0330   -0.4060   -1.6350 H   0  0  0  0  0
    4.7890   -0.9350    0.0470 H   0  0  0  0  0
    3.6940    1.2280    0.5680 H   0  0  0  0  0
    3.9380    1.7570   -1.1140 H   0  0  0  0  0
    2.5640   -0.1470   -1.9120 H   0  0  0  0  0
    2.3190   -0.6760   -0.2300 H   0  0  0  0  0
    1.2240    1.4870    0.2910 H   0  0  0  0  0
    1.4680    2.0160   -1.3910 H   0  0  0  0  0
    0.1270    0.0350   -2.1570 H   0  0  0  0  0
   -0.3550   -0.2090    0.6380 H   0  0  0  0  0
   -1.2580    1.8570   -0.1370 H   0  0  0  0  0
   -0.6970    2.0930   -2.9170 H   0  0  0  0  0
   -2.2910    0.2440   -2.5120 H   0  0  0  0  0
   -2.4780   -0.1560    0.3750 H   0  0  0  0  0
   -2.9990   -2.7930    0.5740 H   0  0  0  0  0
   -4.4690   -1.8720    0.9700 H   0  0  0  0  0
   -5.6750   -3.0030   -0.8780 H   0  0  0  0  0
   -4.2050   -3.9240   -1.2740 H   0  0  0  0  0
   -4.2240   -4.9290    0.9920 H   0  0  0  0  0
   -5.6950   -4.0080    1.3880 H   0  0  0  0  0
   -6.9010   -5.1390   -0.4600 H   0  0  0  0  0
   -5.4300   -6.0610   -0.8560 H   0  0  0  0  0
   -5.4500   -7.0660    1.4110 H   0  0  0  0  0
   -6.9200   -6.1450    1.8070 H   0  0  0  0  0
   -8.1260   -7.2760   -0.0410 H   0  0  0  0  0
   -6.6560   -8.1970   -0.4370 H   0  0  0  0  0
   -6.6750   -9.2030    1.8300 H   0  0  0  0  0
   -8.1460   -8.2810    2.2260 H   0  0  0  0  0
   -8.1960   -9.5400    0.9680 H   0  0  0  0  0
   -3.3390    2.4600   -2.4780 H   0  0  0  0  0
   -4.5020    1.2500   -1.8850 H   0  0  0  0  0
   -4.5970    3.9770   -1.5390 H   0  0  0  0  0
   -5.1740    1.2580    0.5170 H   0  0  0  0  0
   -7.4120    0.3730    1.2380 H   0  0  0  0  0
   -8.1890    1.5700    0.1740 H   0  0  0  0  0
   -7.9160   -0.4700   -0.8330 H   0  0  0  0  0
   -6.2830    2.0610    2.5930 H   0  0  0  0  0
   -7.4080    4.0530    2.4530 H   0  0  0  0  0
   -4.0810    2.9720    2.0380 H   0  0  0  0  0
   -4.3230    5.0330    3.0110 H   0  0  0  0  0
   -5.5980    5.0930    0.4480 H   0  0  0  0  0
   -3.4620    5.5940   -0.2170 H   0  0  0  0  0
  1  2  1  0  0  0
  1 43  1  0  0  0
  1 44  1  0  0  0
  1 45  1  0  0  0
  2  3  1  0  0  0
  2 46  1  0  0  0
  2 47  1  0  0  0
  3  4  1  0  0  0
  3 48  1  0  0  0
  3 49  1  0  0  0
  4  5  1  0  0  0
  4 50  1  0  0  0
  4 51  1  0  0  0
  5  6  1  0  0  0
  5 52  1  0  0  0
  5 53  1  0  0  0
  6  7  1  0  0  0
  6 54  1  0  0  0
  6 55  1  0  0  0
  7  8  1  0  0  0
  7 56  1  0  0  0
  7 57  1  0  0  0
  8  9  1  0  0  0
  8 58  1  0  0  0
  8 59  1  0  0  0
  9 10  1  0  0  0
  9 60  1  0  0  0
  9 61  1  0  0  0
 10 11  1  0  0  0
 10 62  1  0  0  0
 10 63  1  0  0  0
 11 12  1  0  0  0
 11 64  1  0  0  0
 11 65  1  0  0  0
 12 13  1  0  0  0
 12 66  1  0  0  0
 12 67  1  0  0  0
 13 14  1  0  0  0
 13 68  1  0  0  0
 13 69  1  0  0  0
 14 15  1  0  0  0
 14 70  1  0  0  0
 14 71  1  0  0  0
 15 16  1  0  0  0
 15 17  1  0  0  0
 15 72  1  0  0  0
 16 73  1  0  0  0
 17 18  1  0  0  0
 17 19  1  0  0  0
 17 74  1  0  0  0
 18 75  1  0  0  0
 19 20  1  0  0  0
 19 30  1  0  0  0
 19 76  1  0  0  0
 20 21  1  0  0  0
 20 77  1  0  0  0
 21 22  2  0  0  0
 21 23  1  0  0  0
 23 24  1  0  0  0
 23 78  1  0  0  0
 23 79  1  0  0  0
 24 25  1  0  0  0
 24 80  1  0  0  0
 24 81  1  0  0  0
 25 26  1  0  0  0
 25 82  1  0  0  0
 25 83  1  0  0  0
 26 27  1  0  0  0
 26 84  1  0  0  0
 26 85  1  0  0  0
 27 28  1  0  0  0
 27 86  1  0  0  0
 27 87  1  0  0  0
 28 29  1  0  0  0
 28 88  1  0  0  0
 28 89  1  0  0  0
 29 90  1  0  0  0
 29 91  1  0  0  0
 29 92  1  0  0  0
 30 31  1  0  0  0
 30 93  1  0  0  0
 30 94  1  0  0  0
 31 32  1  0  0  0
 32 33  1  0  0  0
 32 41  1  0  0  0
 32 95  1  0  0  0
 33 34  1  0  0  0
 34 35  1  0  0  0
 34 37  1  0  0  0
 34 96  1  0  0  0
 35 36  1  0  0  0
 35 97  1  0  0  0
 35 98  1  0  0  0
 36 99  1  0  0  0
 37 38  1  0  0  0
 37 39  1  0  0  0
 37100  1  0  0  0
 38101  1  0  0  0
 39 40  1  0  0  0
 39 41  1  0  0  0
 39102  1  0  0  0
 40103  1  0  0  0
 41 42  1  0  0  0
 41104  1  0  0  0
 42105  1  0  0  0
M  END
$$$$
