PBX
  CCTOOLS-0919241031

 15 15  0  0  0  0  0  0  0  0999 V2000
    2.2590    0.1060    0.0030 BR  0  0  0  0  0
    0.3820    0.3330   -0.0070 C   0  0  0  0  0
   -0.4500   -0.7770   -0.0270 C   0  0  0  0  0
    0.0840   -2.0280   -0.0390 O   0  0  0  0  0
   -1.8300   -0.6090   -0.0340 C   0  0  0  0  0
   -2.6490   -1.6960   -0.0530 O   0  0  0  0  0
   -2.3700    0.6710   -0.0210 C   0  0  0  0  0
   -3.7200    0.8400   -0.0270 O   0  0  0  0  0
   -1.5330    1.7750   -0.0010 C   0  0  0  0  0
   -0.1610    1.6050    0.0110 C   0  0  0  0  0
    0.2320   -2.4010    0.8410 H   0  0  0  0  0
   -2.8920   -2.0210    0.8250 H   0  0  0  0  0
   -4.1160    0.8770    0.8550 H   0  0  0  0  0
   -1.9520    2.7700    0.0130 H   0  0  0  0  0
    0.4890    2.4670    0.0270 H   0  0  0  0  0
  2  3  2  0  0  0
  2  1  1  0  0  0
  3  4  1  0  0  0
  4 11  1  0  0  0
  5  3  1  0  0  0
  5  6  1  0  0  0
  6 12  1  0  0  0
  7  5  2  0  0  0
  8  7  1  0  0  0
  8 13  1  0  0  0
  9 10  2  0  0  0
  9  7  1  0  0  0
  9 14  1  0  0  0
 10  2  1  0  0  0
 10 15  1  0  0  0
M  END
$$$$
