PC1
  CCTOOLS-0919241031

142141  0  0  1  0  0  0  0  0999 V2000
   -4.8350   10.1110   -8.7940 O   0  5  0  0  0
   -6.1860   10.7740   -8.6290 P   0  0  0  0  0
   -6.3340   12.2670   -8.8320 O   0  0  0  0  0
   -7.2750   10.0160   -9.5870 O   0  0  0  0  0
   -7.5280    8.6350   -9.3910 C   0  0  0  0  0
   -8.5650    8.1610  -10.3900 C   0  0  0  0  0
   -8.8520    6.7240  -10.1540 N   0  3  0  0  0
   -9.3620    6.4980   -8.7240 C   0  0  0  0  0
   -9.9230    6.2160  -11.1290 C   0  0  0  0  0
   -7.5880    5.8770  -10.3500 C   0  0  0  0  0
   -6.7710   10.3710   -7.1570 O   0  0  0  0  0
   -8.0410   10.8730   -6.7560 C   0  0  0  0  0
   -8.3790   10.3700   -5.3580 C   0  0  0  0  0
   -7.3570   10.8000   -4.4560 O   0  0  0  0  0
   -7.1880   12.1530   -4.3580 C   0  0  0  0  0
   -7.8270   13.0010   -4.9660 O   0  0  0  0  0
   -6.0770   12.4390   -3.3730 C   0  0  0  0  0
   -5.8440   13.9390   -3.1920 C   0  0  0  0  0
   -4.7480   14.2090   -2.1610 C   0  0  0  0  0
   -4.5230   15.6990   -1.8870 C   0  0  0  0  0
   -3.4770   15.9680   -0.8020 C   0  0  0  0  0
   -3.2710   17.4700   -0.5940 C   0  0  0  0  0
   -2.2260   17.8020    0.4760 C   0  0  0  0  0
   -1.9310   19.2910    0.6860 C   0  0  0  0  0
   -0.8200   19.5550    1.7050 C   0  0  0  0  0
   -0.5530   21.0550    1.8530 C   0  0  0  0  0
    0.5710   21.3780    2.8430 C   0  0  0  0  0
    0.8190   22.8790    3.0090 C   0  0  0  0  0
    1.9350   23.2020    4.0080 C   0  0  0  0  0
    2.1670   24.7040    4.1950 C   0  0  0  0  0
    3.3370   24.9660    5.1470 C   0  0  0  0  0
    3.6000   26.4540    5.3890 C   0  0  0  0  0
    4.7780   26.7200    6.3140 C   0  0  0  0  0
   -8.4360    8.8490   -5.3120 C   0  0  0  0  0
   -8.7280    8.4340   -3.9740 O   0  0  0  0  0
   -8.8100    7.0840   -3.7800 C   0  0  0  0  0
   -8.6580    6.2260   -4.6390 O   0  0  0  0  0
   -9.1240    6.8170   -2.3260 C   0  0  0  0  0
   -9.2100    5.3210   -2.0250 C   0  0  0  0  0
   -9.4840    5.0690   -0.5410 C   0  0  0  0  0
   -9.5090    3.5830   -0.1700 C   0  0  0  0  0
   -9.7110    3.3330    1.3270 C   0  0  0  0  0
   -9.7590    1.8340    1.6340 C   0  0  0  0  0
   -9.9690    1.5210    3.1190 C   0  0  0  0  0
  -10.0880    0.0370    3.4800 C   0  0  0  0  0
  -10.3810   -0.2090    4.9620 C   0  0  0  0  0
  -10.5150   -1.7060    5.2570 C   0  0  0  0  0
  -10.8360   -2.0090    6.7240 C   0  0  0  0  0
  -10.9430   -3.5070    7.0220 C   0  0  0  0  0
  -11.2520   -3.8110    8.4920 C   0  0  0  0  0
  -11.3340   -5.3090    8.7980 C   0  0  0  0  0
  -11.7140   -5.5530   10.2610 C   0  0  0  0  0
  -11.7890   -7.0370   10.6290 C   0  0  0  0  0
  -12.1920   -7.2840   12.0740 C   0  0  0  0  0
   -7.9050    8.5020   -8.3720 H   0  0  0  0  0
   -6.5870    8.0830   -9.4920 H   0  0  0  0  0
   -8.2100    8.2400  -11.4210 H   0  0  0  0  0
   -9.5120    8.6940  -10.2720 H   0  0  0  0  0
  -10.2220    7.1520   -8.5690 H   0  0  0  0  0
   -9.6450    5.4470   -8.6330 H   0  0  0  0  0
   -8.5500    6.7460   -8.0370 H   0  0  0  0  0
   -9.5510    5.2960  -11.5840 H   0  0  0  0  0
  -10.8340    6.0300  -10.5570 H   0  0  0  0  0
  -10.0830    6.9900  -11.8820 H   0  0  0  0  0
   -7.1380    6.1630  -11.3030 H   0  0  0  0  0
   -6.9120    6.0870   -9.5190 H   0  0  0  0  0
   -7.8870    4.8270  -10.3570 H   0  0  0  0  0
   -7.9990   11.9660   -6.7920 H   0  0  0  0  0
   -8.7750   10.5240   -7.4890 H   0  0  0  0  0
   -9.3190   10.8020   -4.9980 H   0  0  0  0  0
   -5.1610   11.9650   -3.7440 H   0  0  0  0  0
   -6.3490   11.9880   -2.4120 H   0  0  0  0  0
   -5.5720   14.3790   -4.1580 H   0  0  0  0  0
   -6.7780   14.4210   -2.8760 H   0  0  0  0  0
   -3.8080   13.7500   -2.4900 H   0  0  0  0  0
   -5.0200   13.7260   -1.2140 H   0  0  0  0  0
   -4.2310   16.2030   -2.8160 H   0  0  0  0  0
   -5.4800   16.1370   -1.5780 H   0  0  0  0  0
   -3.7960   15.5070    0.1400 H   0  0  0  0  0
   -2.5270   15.5060   -1.0880 H   0  0  0  0  0
   -4.2220   17.9240   -0.2890 H   0  0  0  0  0
   -2.9980   17.9430   -1.5450 H   0  0  0  0  0
   -2.5580   17.3690    1.4280 H   0  0  0  0  0
   -1.2860   17.2970    0.2210 H   0  0  0  0  0
   -2.8450   19.8160    0.9880 H   0  0  0  0  0
   -1.6390   19.7170   -0.2820 H   0  0  0  0  0
   -1.1070   19.1380    2.6760 H   0  0  0  0  0
    0.0980   19.0470    1.3880 H   0  0  0  0  0
   -0.2750   21.4680    0.8750 H   0  0  0  0  0
   -1.4720   21.5670    2.1610 H   0  0  0  0  0
    1.4910   20.8990    2.4830 H   0  0  0  0  0
    0.3350   20.9240    3.8120 H   0  0  0  0  0
    1.0960   23.3070    2.0380 H   0  0  0  0  0
   -0.1010   23.3820    3.3270 H   0  0  0  0  0
    1.7070   22.7380    4.9760 H   0  0  0  0  0
    2.8620   22.7380    3.6470 H   0  0  0  0  0
    2.3680   25.1600    3.2200 H   0  0  0  0  0
    1.2640   25.1750    4.5990 H   0  0  0  0  0
    3.1250   24.4940    6.1140 H   0  0  0  0  0
    4.2460   24.4920    4.7570 H   0  0  0  0  0
    2.7010   26.8970    5.8340 H   0  0  0  0  0
    3.7650   26.9640    4.4330 H   0  0  0  0  0
    4.8550   27.7920    6.5240 H   0  0  0  0  0
    5.7230   26.4030    5.8620 H   0  0  0  0  0
    4.6560   26.1960    7.2670 H   0  0  0  0  0
   -7.4760    8.4070   -5.5990 H   0  0  0  0  0
   -9.2250    8.4640   -5.9660 H   0  0  0  0  0
  -10.0800    7.2970   -2.0880 H   0  0  0  0  0
   -8.3340    7.2720   -1.7180 H   0  0  0  0  0
  -10.0030    4.8770   -2.6370 H   0  0  0  0  0
   -8.2720    4.8320   -2.3160 H   0  0  0  0  0
  -10.4350    5.5350   -0.2560 H   0  0  0  0  0
   -8.7020    5.5560    0.0550 H   0  0  0  0  0
  -10.2960    3.0750   -0.7400 H   0  0  0  0  0
   -8.5560    3.1380   -0.4820 H   0  0  0  0  0
   -8.8940    3.7980    1.8910 H   0  0  0  0  0
  -10.6440    3.8020    1.6530 H   0  0  0  0  0
   -8.8130    1.3730    1.3220 H   0  0  0  0  0
  -10.5430    1.3570    1.0350 H   0  0  0  0  0
   -9.1360    1.9570    3.6840 H   0  0  0  0  0
  -10.8760    2.0330    3.4630 H   0  0  0  0  0
   -9.1750   -0.4950    3.1890 H   0  0  0  0  0
  -10.8980   -0.3940    2.8780 H   0  0  0  0  0
   -9.5740    0.2120    5.5700 H   0  0  0  0  0
  -11.3080    0.3050    5.2440 H   0  0  0  0  0
  -11.3190   -2.1230    4.6380 H   0  0  0  0  0
   -9.5930   -2.2240    4.9670 H   0  0  0  0  0
  -11.7880   -1.5250    6.9730 H   0  0  0  0  0
  -10.0700   -1.5510    7.3600 H   0  0  0  0  0
  -11.7430   -3.9400    6.4080 H   0  0  0  0  0
  -10.0150   -4.0170    6.7400 H   0  0  0  0  0
  -10.4940   -3.3430    9.1310 H   0  0  0  0  0
  -12.2110   -3.3410    8.7430 H   0  0  0  0  0
  -12.0750   -5.7710    8.1360 H   0  0  0  0  0
  -10.3690   -5.7870    8.5940 H   0  0  0  0  0
  -10.9690   -5.0760   10.9090 H   0  0  0  0  0
  -12.6760   -5.0730   10.4780 H   0  0  0  0  0
  -10.8020   -7.4860   10.4610 H   0  0  0  0  0
  -12.4890   -7.5520    9.9610 H   0  0  0  0  0
  -12.1330   -8.3540   12.3020 H   0  0  0  0  0
  -13.2190   -6.9610   12.2660 H   0  0  0  0  0
  -11.5270   -6.7550   12.7640 H   0  0  0  0  0
  1  2  1  0  0  0
  2  3  2  0  0  0
  2  4  1  0  0  0
  2 11  1  0  0  0
  4  5  1  0  0  0
  5  6  1  0  0  0
  5 55  1  0  0  0
  5 56  1  0  0  0
  6  7  1  0  0  0
  6 57  1  0  0  0
  6 58  1  0  0  0
  7  8  1  0  0  0
  7  9  1  0  0  0
  7 10  1  0  0  0
  8 59  1  0  0  0
  8 60  1  0  0  0
  8 61  1  0  0  0
  9 62  1  0  0  0
  9 63  1  0  0  0
  9 64  1  0  0  0
 10 65  1  0  0  0
 10 66  1  0  0  0
 10 67  1  0  0  0
 11 12  1  0  0  0
 12 13  1  0  0  0
 12 68  1  0  0  0
 12 69  1  0  0  0
 13 14  1  0  0  0
 13 34  1  0  0  0
 13 70  1  0  0  0
 14 15  1  0  0  0
 15 16  2  0  0  0
 15 17  1  0  0  0
 17 18  1  0  0  0
 17 71  1  0  0  0
 17 72  1  0  0  0
 18 19  1  0  0  0
 18 73  1  0  0  0
 18 74  1  0  0  0
 19 20  1  0  0  0
 19 75  1  0  0  0
 19 76  1  0  0  0
 20 21  1  0  0  0
 20 77  1  0  0  0
 20 78  1  0  0  0
 21 22  1  0  0  0
 21 79  1  0  0  0
 21 80  1  0  0  0
 22 23  1  0  0  0
 22 81  1  0  0  0
 22 82  1  0  0  0
 23 24  1  0  0  0
 23 83  1  0  0  0
 23 84  1  0  0  0
 24 25  1  0  0  0
 24 85  1  0  0  0
 24 86  1  0  0  0
 25 26  1  0  0  0
 25 87  1  0  0  0
 25 88  1  0  0  0
 26 27  1  0  0  0
 26 89  1  0  0  0
 26 90  1  0  0  0
 27 28  1  0  0  0
 27 91  1  0  0  0
 27 92  1  0  0  0
 28 29  1  0  0  0
 28 93  1  0  0  0
 28 94  1  0  0  0
 29 30  1  0  0  0
 29 95  1  0  0  0
 29 96  1  0  0  0
 30 31  1  0  0  0
 30 97  1  0  0  0
 30 98  1  0  0  0
 31 32  1  0  0  0
 31 99  1  0  0  0
 31100  1  0  0  0
 32 33  1  0  0  0
 32101  1  0  0  0
 32102  1  0  0  0
 33103  1  0  0  0
 33104  1  0  0  0
 33105  1  0  0  0
 34 35  1  0  0  0
 34106  1  0  0  0
 34107  1  0  0  0
 35 36  1  0  0  0
 36 37  2  0  0  0
 36 38  1  0  0  0
 38 39  1  0  0  0
 38108  1  0  0  0
 38109  1  0  0  0
 39 40  1  0  0  0
 39110  1  0  0  0
 39111  1  0  0  0
 40 41  1  0  0  0
 40112  1  0  0  0
 40113  1  0  0  0
 41 42  1  0  0  0
 41114  1  0  0  0
 41115  1  0  0  0
 42 43  1  0  0  0
 42116  1  0  0  0
 42117  1  0  0  0
 43 44  1  0  0  0
 43118  1  0  0  0
 43119  1  0  0  0
 44 45  1  0  0  0
 44120  1  0  0  0
 44121  1  0  0  0
 45 46  1  0  0  0
 45122  1  0  0  0
 45123  1  0  0  0
 46 47  1  0  0  0
 46124  1  0  0  0
 46125  1  0  0  0
 47 48  1  0  0  0
 47126  1  0  0  0
 47127  1  0  0  0
 48 49  1  0  0  0
 48128  1  0  0  0
 48129  1  0  0  0
 49 50  1  0  0  0
 49130  1  0  0  0
 49131  1  0  0  0
 50 51  1  0  0  0
 50132  1  0  0  0
 50133  1  0  0  0
 51 52  1  0  0  0
 51134  1  0  0  0
 51135  1  0  0  0
 52 53  1  0  0  0
 52136  1  0  0  0
 52137  1  0  0  0
 53 54  1  0  0  0
 53138  1  0  0  0
 53139  1  0  0  0
 54140  1  0  0  0
 54141  1  0  0  0
 54142  1  0  0  0
M  CHG  1   1  -1
M  CHG  1   7   1
M  END
$$$$
