PCP
  CCTOOLS-0919241031

 37 37  0  0  1  0  0  0  0  0999 V2000
    0.7830   -0.7680    0.2000 C   0  0  0  0  0
    2.2550   -0.7380   -0.2590 C   0  0  0  0  0
    2.2690   -0.0710   -1.6450 C   0  0  0  0  0
    0.8050    0.2810   -1.9810 C   0  0  0  0  0
   -0.0270   -0.6990   -1.1160 C   0  0  0  0  0
    0.5230    0.0560   -3.4670 C   0  0  0  0  0
    0.4940    0.3590    1.0280 O   0  0  0  0  0
    3.0400    0.0240    0.6590 O   0  0  0  0  0
    3.0620    1.1160   -1.6090 O   0  0  0  0  0
   -0.8580    0.3060   -3.7330 O   0  0  0  0  0
   -1.0830    0.0530   -5.3070 P   0  0  0  0  0
   -0.7290   -1.3450   -5.6370 O   0  0  0  0  0
   -2.6270    0.3180   -5.6780 O   0  0  0  0  0
   -0.1480    1.0560   -6.1510 O   0  0  0  0  0
   -0.0110   -0.2180    2.4430 P   0  0  0  0  0
    1.0520   -1.0520    3.0440 O   0  0  0  0  0
   -1.3300   -1.1120    2.2160 O   0  0  0  0  0
   -0.3560    1.0050    3.4310 O   0  0  0  0  0
   -0.8530    0.3580    4.8180 P   0  0  0  0  0
    0.2240   -0.4850    5.3830 O   0  0  0  0  0
   -1.2160    1.5320    5.8580 O   0  0  0  0  0
   -2.1580   -0.5450    4.5520 O   0  0  0  0  0
    0.5680   -1.6950    0.7320 H   0  0  0  0  0
    2.6450   -1.7540   -0.3290 H   0  0  0  0  0
    2.6660   -0.7620   -2.3880 H   0  0  0  0  0
    0.5880    1.3120   -1.7030 H   0  0  0  0  0
   -0.0810   -1.6790   -1.5890 H   0  0  0  0  0
   -1.0260   -0.3010   -0.9350 H   0  0  0  0  0
    1.1350    0.7350   -4.0600 H   0  0  0  0  0
    0.7630   -0.9730   -3.7310 H   0  0  0  0  0
    3.9440    0.0300    0.3160 H   0  0  0  0  0
    3.9630    0.8440   -1.3850 H   0  0  0  0  0
   -2.7180    0.1560   -6.6270 H   0  0  0  0  0
   -0.4100    1.9540   -5.9070 H   0  0  0  0  0
   -1.9970   -0.5320    1.8240 H   0  0  0  0  0
   -1.5090    1.1020    6.6740 H   0  0  0  0  0
   -2.8340    0.0400    4.1850 H   0  0  0  0  0
  1  2  1  0  0  0
  1  5  1  0  0  0
  1  7  1  0  0  0
  1 23  1  0  0  0
  2  3  1  0  0  0
  2  8  1  0  0  0
  2 24  1  0  0  0
  3  4  1  0  0  0
  3  9  1  0  0  0
  3 25  1  0  0  0
  4  5  1  0  0  0
  4  6  1  0  0  0
  4 26  1  0  0  0
  5 27  1  0  0  0
  5 28  1  0  0  0
  6 10  1  0  0  0
  6 29  1  0  0  0
  6 30  1  0  0  0
  7 15  1  0  0  0
  8 31  1  0  0  0
  9 32  1  0  0  0
 10 11  1  0  0  0
 11 12  2  0  0  0
 11 13  1  0  0  0
 11 14  1  0  0  0
 13 33  1  0  0  0
 14 34  1  0  0  0
 15 16  2  0  0  0
 15 17  1  0  0  0
 15 18  1  0  0  0
 17 35  1  0  0  0
 18 19  1  0  0  0
 19 20  2  0  0  0
 19 21  1  0  0  0
 19 22  1  0  0  0
 21 36  1  0  0  0
 22 37  1  0  0  0
M  END
$$$$
