PCR
  CCTOOLS-0919241031

 16 16  0  0  0  0  0  0  0  0999 V2000
    0.0000   -0.0140    2.9100 C   0  0  0  0  0
    0.0000   -0.0020    1.4040 C   0  0  0  0  0
    1.1980    0.0010    0.7130 C   0  0  0  0  0
    1.2000    0.0130   -0.6670 C   0  0  0  0  0
   -1.1980   -0.0000    0.7130 C   0  0  0  0  0
   -1.2000    0.0160   -0.6670 C   0  0  0  0  0
    0.0000    0.0200   -1.3620 C   0  0  0  0  0
    0.0000    0.0310   -2.7210 O   0  0  0  0  0
    0.8890   -0.5320    3.2700 H   0  0  0  0  0
    0.0010    1.0100    3.2820 H   0  0  0  0  0
   -0.8900   -0.5300    3.2700 H   0  0  0  0  0
    2.1320   -0.0030    1.2550 H   0  0  0  0  0
    2.1360    0.0170   -1.2060 H   0  0  0  0  0
   -2.1320   -0.0040    1.2550 H   0  0  0  0  0
   -2.1360    0.0210   -1.2060 H   0  0  0  0  0
   -0.0010   -0.8910   -3.0080 H   0  0  0  0  0
  1  2  1  0  0  0
  1  9  1  0  0  0
  1 10  1  0  0  0
  1 11  1  0  0  0
  2  3  2  0  0  0
  2  5  1  0  0  0
  3  4  1  0  0  0
  3 12  1  0  0  0
  4  7  2  0  0  0
  4 13  1  0  0  0
  5  6  2  0  0  0
  5 14  1  0  0  0
  6  7  1  0  0  0
  6 15  1  0  0  0
  7  8  1  0  0  0
  8 16  1  0  0  0
M  END
$$$$
