PCT
  CCTOOLS-0919241031

 14 13  0  0  0  0  0  0  0  0999 V2000
    0.0460    0.0220   -0.9660 P   0  0  0  0  0
    1.1870    0.9610   -0.8890 O   0  0  0  0  0
    0.1660   -0.8580   -2.3090 O   0  0  0  0  0
   -1.3320    0.8530   -0.9910 O   0  0  0  0  0
    0.0650   -1.0790    0.4850 C   0  0  0  0  0
   -0.0460   -0.2540    1.7420 C   0  0  0  0  0
   -1.1380    0.0010    2.2040 O   0  0  0  0  0
    1.0660    0.1980    2.3520 N   0  0  0  0  0
    0.1520   -0.2390   -3.0520 H   0  0  0  0  0
   -2.0480    0.2060   -1.0420 H   0  0  0  0  0
    0.9980   -1.6420    0.5020 H   0  0  0  0  0
   -0.7750   -1.7700    0.4280 H   0  0  0  0  0
    0.9930    0.7280    3.1610 H   0  0  0  0  0
    1.9390   -0.0100    1.9850 H   0  0  0  0  0
  1  2  2  0  0  0
  1  3  1  0  0  0
  1  4  1  0  0  0
  1  5  1  0  0  0
  3  9  1  0  0  0
  4 10  1  0  0  0
  5  6  1  0  0  0
  5 11  1  0  0  0
  5 12  1  0  0  0
  6  7  2  0  0  0
  6  8  1  0  0  0
  8 13  1  0  0  0
  8 14  1  0  0  0
M  END
$$$$
