PDC
  CCTOOLS-0523251035

 17 17  0  0  0  0  0  0  0  0999 V2000
    0.4050    0.0040    0.0000 N   0  0  0  0  0
   -0.2400   -0.0000    1.1550 C   0  0  0  0  0
   -1.6360   -0.0000    1.1910 C   0  0  0  0  0
   -2.3440   -0.0000    0.0000 C   0  0  0  0  0
   -1.6360    0.0000   -1.1910 C   0  0  0  0  0
   -0.2400   -0.0000   -1.1550 C   0  0  0  0  0
    0.5250   -0.0000    2.4230 C   0  0  0  0  0
   -0.0600   -0.0000    3.4860 O   0  0  0  0  0
    1.8710   -0.0000    2.3960 O   0  0  0  0  0
    0.5250   -0.0000   -2.4230 C   0  0  0  0  0
   -0.0600   -0.0000   -3.4860 O   0  0  0  0  0
    1.8710   -0.0000   -2.3960 O   0  0  0  0  0
   -2.1580   -0.0010    2.1360 H   0  0  0  0  0
   -3.4240   -0.0000    0.0000 H   0  0  0  0  0
   -2.1580   -0.0000   -2.1360 H   0  0  0  0  0
    2.3710   -0.0000    3.2240 H   0  0  0  0  0
    2.3710   -0.0000   -3.2240 H   0  0  0  0  0
  1  2  2  0  0  0
  1  6  1  0  0  0
  2  3  1  0  0  0
  2  7  1  0  0  0
  3  4  2  0  0  0
  3 13  1  0  0  0
  4  5  1  0  0  0
  4 14  1  0  0  0
  5  6  2  0  0  0
  5 15  1  0  0  0
  6 10  1  0  0  0
  7  8  2  0  0  0
  7  9  1  0  0  0
  9 16  1  0  0  0
 10 11  2  0  0  0
 10 12  1  0  0  0
 12 17  1  0  0  0
M  END
$$$$
