PDX
  CCTOOLS-0919241031

 32 32  0  0  1  0  0  0  0  0999 V2000
   -1.7460   -0.5650    0.9390 C   0  0  0  0  0
   -0.8430    0.0980   -0.1020 C   0  0  0  0  0
    0.6030    0.0770    0.4050 C   0  0  0  0  0
    0.6410    0.7100    1.8000 C   0  0  0  0  0
   -0.3730   -0.0000    2.6980 C   0  0  0  0  0
   -0.3180    0.6000    4.1040 C   0  0  0  0  0
   -1.3080   -1.9070    1.1600 O   0  0  0  0  0
   -0.9290   -0.6170   -1.3350 O   0  0  0  0  0
    1.4350    0.8230   -0.4850 O   0  0  0  0  0
    1.9500    0.5690    2.3540 O   0  0  0  0  0
   -1.6860    0.1610    2.1640 O   0  0  0  0  0
   -1.2630   -0.0640    4.9440 O   0  0  0  0  0
   -2.0050   -0.5990   -3.4220 O   0  0  0  0  0
   -2.9180    0.6270   -1.4130 O   0  0  0  0  0
   -1.1060    1.4340   -2.6690 O   0  0  0  0  0
    2.9490   -0.8370    0.1910 O   0  0  0  0  0
    3.3710    0.6530   -1.8020 O   0  0  0  0  0
    1.8740   -1.1530   -1.8710 O   0  0  0  0  0
   -1.8550    0.1790   -2.2430 S   0  0  0  0  0
    2.5280   -0.1220   -0.9620 S   0  0  0  0  0
   -2.7730   -0.5750    0.5740 H   0  0  0  0  0
   -1.1600    1.1290   -0.2560 H   0  0  0  0  0
    0.9560   -0.9520    0.4600 H   0  0  0  0  0
    0.3880    1.7680    1.7280 H   0  0  0  0  0
   -0.1310   -1.0620    2.7490 H   0  0  0  0  0
   -0.5600    1.6620    4.0550 H   0  0  0  0  0
    0.6830    0.4750    4.5140 H   0  0  0  0  0
   -1.9040   -2.2910    1.8170 H   0  0  0  0  0
    1.9300    0.9790    3.2290 H   0  0  0  0  0
   -1.1960    0.3430    5.8180 H   0  0  0  0  0
   -1.7020    1.9330   -3.2440 H   0  0  0  0  0
    2.5750   -1.7480   -2.1680 H   0  0  0  0  0
  1  2  1  0  0  0
  1  7  1  0  0  0
  1 11  1  0  0  0
  1 21  1  0  0  0
  2  3  1  0  0  0
  2  8  1  0  0  0
  2 22  1  0  0  0
  3  4  1  0  0  0
  3  9  1  0  0  0
  3 23  1  0  0  0
  4  5  1  0  0  0
  4 10  1  0  0  0
  4 24  1  0  0  0
  5  6  1  0  0  0
  5 11  1  0  0  0
  5 25  1  0  0  0
  6 12  1  0  0  0
  6 26  1  0  0  0
  6 27  1  0  0  0
  7 28  1  0  0  0
  8 19  1  0  0  0
  9 20  1  0  0  0
 10 29  1  0  0  0
 12 30  1  0  0  0
 13 19  2  0  0  0
 14 19  2  0  0  0
 15 19  1  0  0  0
 15 31  1  0  0  0
 16 20  2  0  0  0
 17 20  2  0  0  0
 18 20  1  0  0  0
 18 32  1  0  0  0
M  END
$$$$
