PE2
  CCTOOLS-0919241031

 33 34  0  0  0  0  0  0  0  0999 V2000
    1.7400   -0.0020   -2.3980 C   0  0  0  0  0
   -0.2450    0.2970   -1.2580 C   0  0  0  0  0
   -0.9710   -0.0470   -2.4040 C   0  0  0  0  0
   -0.3570   -1.0940    4.2970 C   0  0  0  0  0
   -0.0820   -0.6980    5.6420 O   0  0  0  0  0
    0.8350    0.9340    3.4570 C   0  0  0  0  0
    1.8990    0.1100    2.9770 O   0  0  0  0  0
   -0.4770    0.1490    3.4140 C   0  0  0  0  0
   -0.7710   -0.2740    1.9740 C   0  0  0  0  0
   -0.8910    0.9690    1.0910 C   0  0  0  0  0
   -1.1720    0.5640   -0.2880 N   0  0  0  0  0
    1.0920    0.3060   -1.2980 N   0  0  0  0  0
    3.1130    0.0210   -2.3920 N   0  0  0  0  0
    1.0900   -0.3400   -3.5470 N   0  0  0  0  0
   -0.2600   -0.3770   -3.5820 C   0  0  0  0  0
   -0.8510   -0.6830   -4.6030 O   0  0  0  0  0
   -2.2860    0.0250   -2.0840 N   0  0  0  0  0
   -2.4070    0.3840   -0.8400 C   0  0  0  0  0
   -1.2920   -1.6530    4.2660 H   0  0  0  0  0
    0.4540   -1.7230    3.9300 H   0  0  0  0  0
   -0.0140   -1.5100    6.1640 H   0  0  0  0  0
    0.7490    1.8200    2.8280 H   0  0  0  0  0
    1.0440    1.2350    4.4830 H   0  0  0  0  0
    2.7060    0.6410    3.0200 H   0  0  0  0  0
   -1.2880    0.7780    3.7810 H   0  0  0  0  0
   -1.7060   -0.8330    1.9430 H   0  0  0  0  0
    0.0400   -0.9020    1.6070 H   0  0  0  0  0
    0.0430    1.5290    1.1220 H   0  0  0  0  0
   -1.7020    1.5980    1.4570 H   0  0  0  0  0
    3.5900    0.2630   -1.5830 H   0  0  0  0  0
    3.6050   -0.2080   -3.1950 H   0  0  0  0  0
    1.5990   -0.5630   -4.3430 H   0  0  0  0  0
   -3.3450    0.5200   -0.3220 H   0  0  0  0  0
  1 12  2  0  0  0
  1 13  1  0  0  0
  1 14  1  0  0  0
  2  3  2  0  0  0
  2 11  1  0  0  0
  2 12  1  0  0  0
  3 15  1  0  0  0
  3 17  1  0  0  0
  4  5  1  0  0  0
  4  8  1  0  0  0
  4 19  1  0  0  0
  4 20  1  0  0  0
  5 21  1  0  0  0
  6  7  1  0  0  0
  6  8  1  0  0  0
  6 22  1  0  0  0
  6 23  1  0  0  0
  7 24  1  0  0  0
  8  9  1  0  0  0
  8 25  1  0  0  0
  9 10  1  0  0  0
  9 26  1  0  0  0
  9 27  1  0  0  0
 10 11  1  0  0  0
 10 28  1  0  0  0
 10 29  1  0  0  0
 11 18  1  0  0  0
 13 30  1  0  0  0
 13 31  1  0  0  0
 14 15  1  0  0  0
 14 32  1  0  0  0
 15 16  2  0  0  0
 17 18  2  0  0  0
 18 33  1  0  0  0
M  END
$$$$
