PE3
  CCTOOLS-0919241031

101100  0  0  0  0  0  0  0  0999 V2000
   18.7690    0.6050    0.1100 O   0  0  0  0  0
   17.9140    1.4290   -0.6840 C   0  0  0  0  0
   16.9530    0.5460   -1.4840 C   0  0  0  0  0
   16.0840   -0.1470   -0.5860 O   0  0  0  0  0
   15.2160   -0.9500   -1.3880 C   0  0  0  0  0
   14.2540   -1.7220   -0.4830 C   0  0  0  0  0
   13.3970   -0.8020    0.1960 O   0  0  0  0  0
   12.5270   -1.5800    1.0210 C   0  0  0  0  0
   11.5780   -0.6500    1.7800 C   0  0  0  0  0
   10.7220    0.0180    0.8520 O   0  0  0  0  0
    9.8640    0.8660    1.6180 C   0  0  0  0  0
    8.9160    1.6150    0.6790 C   0  0  0  0  0
    8.0470    0.6810    0.0350 O   0  0  0  0  0
    7.1910    1.4370   -0.8240 C   0  0  0  0  0
    6.2300    0.4910   -1.5470 C   0  0  0  0  0
    5.3610   -0.1250   -0.5950 O   0  0  0  0  0
    4.4930   -0.9910   -1.3280 C   0  0  0  0  0
    3.5310   -1.6860   -0.3620 C   0  0  0  0  0
    2.6750   -0.7130    0.2400 O   0  0  0  0  0
    1.8050   -1.4210    1.1270 C   0  0  0  0  0
    0.8570   -0.4320    1.8080 C   0  0  0  0  0
    0.0000    0.1580    0.8280 O   0  0  0  0  0
   -0.8570    1.0670    1.5220 C   0  0  0  0  0
   -1.8050    1.7360    0.5250 C   0  0  0  0  0
   -2.6750    0.7520   -0.0390 O   0  0  0  0  0
   -3.5310    1.4350   -0.9570 C   0  0  0  0  0
   -4.4930    0.4330   -1.5990 C   0  0  0  0  0
   -5.3610   -0.1030   -0.5990 O   0  0  0  0  0
   -6.2300   -1.0260   -1.2570 C   0  0  0  0  0
   -7.1910   -1.6390   -0.2370 C   0  0  0  0  0
   -8.0470   -0.6200    0.2830 O   0  0  0  0  0
   -8.9160   -1.2520    1.2260 C   0  0  0  0  0
   -9.8640   -0.2100    1.8230 C   0  0  0  0  0
  -10.7220    0.2970    0.7990 O   0  0  0  0  0
  -11.5780    1.2600    1.4160 C   0  0  0  0  0
  -12.5270    1.8450    0.3680 C   0  0  0  0  0
  -13.3970    0.8180   -0.1120 O   0  0  0  0  0
  -14.2540    1.4240   -1.0820 C   0  0  0  0  0
  -15.2160    0.3730   -1.6400 C   0  0  0  0  0
  -16.0840   -0.0790   -0.5980 O   0  0  0  0  0
  -16.9530   -1.0530   -1.1780 C   0  0  0  0  0
  -17.9140   -1.5800   -0.1100 C   0  0  0  0  0
  -18.7690   -0.5220    0.3250 O   0  0  0  0  0
   19.3570    1.1990    0.5960 H   0  0  0  0  0
   17.3420    2.0920   -0.0350 H   0  0  0  0  0
   18.5170    2.0240   -1.3700 H   0  0  0  0  0
   16.3620    1.1680   -2.1550 H   0  0  0  0  0
   17.5240   -0.1770   -2.0670 H   0  0  0  0  0
   14.6460   -0.3090   -2.0610 H   0  0  0  0  0
   15.8090   -1.6540   -1.9720 H   0  0  0  0  0
   13.6520   -2.4010   -1.0870 H   0  0  0  0  0
   14.8240   -2.2950    0.2480 H   0  0  0  0  0
   11.9470   -2.2600    0.3970 H   0  0  0  0  0
   13.1190   -2.1550    1.7330 H   0  0  0  0  0
   10.9750   -1.2350    2.4750 H   0  0  0  0  0
   12.1590    0.0870    2.3350 H   0  0  0  0  0
    9.2830    0.2620    2.3140 H   0  0  0  0  0
   10.4660    1.5840    2.1740 H   0  0  0  0  0
    8.3230    2.3270    1.2530 H   0  0  0  0  0
    9.4970    2.1490   -0.0740 H   0  0  0  0  0
    6.6200    2.1510   -0.2300 H   0  0  0  0  0
    7.7940    1.9730   -1.5570 H   0  0  0  0  0
    5.6380    1.0560   -2.2670 H   0  0  0  0  0
    6.8010   -0.2770   -2.0690 H   0  0  0  0  0
    3.9230   -0.4080   -2.0500 H   0  0  0  0  0
    5.0860   -1.7410   -1.8520 H   0  0  0  0  0
    2.9290   -2.4120   -0.9080 H   0  0  0  0  0
    4.1020   -2.1970    0.4140 H   0  0  0  0  0
    1.2250   -2.1500    0.5610 H   0  0  0  0  0
    2.3980   -1.9350    1.8830 H   0  0  0  0  0
    0.2550   -0.9570    2.5480 H   0  0  0  0  0
    1.4380    0.3490    2.2990 H   0  0  0  0  0
   -1.4380    0.5220    2.2660 H   0  0  0  0  0
   -0.2540    1.8280    2.0170 H   0  0  0  0  0
   -2.3980    2.4920    1.0390 H   0  0  0  0  0
   -1.2250    2.2060   -0.2690 H   0  0  0  0  0
   -4.1020    2.1960   -0.4240 H   0  0  0  0  0
   -2.9290    1.9090   -1.7320 H   0  0  0  0  0
   -5.0860    0.9370   -2.3630 H   0  0  0  0  0
   -3.9230   -0.3760   -2.0560 H   0  0  0  0  0
   -6.8010   -0.5040   -2.0250 H   0  0  0  0  0
   -5.6380   -1.8160   -1.7190 H   0  0  0  0  0
   -7.7940   -2.4070   -0.7210 H   0  0  0  0  0
   -6.6200   -2.0850    0.5780 H   0  0  0  0  0
   -9.4970   -2.0250    0.7230 H   0  0  0  0  0
   -8.3230   -1.7020    2.0210 H   0  0  0  0  0
  -10.4660   -0.6730    2.6050 H   0  0  0  0  0
   -9.2830    0.6080    2.2490 H   0  0  0  0  0
  -12.1580    0.7780    2.2030 H   0  0  0  0  0
  -10.9750    2.0590    1.8470 H   0  0  0  0  0
  -13.1190    2.6420    0.8190 H   0  0  0  0  0
  -11.9470    2.2480   -0.4620 H   0  0  0  0  0
  -14.8240    2.2260   -0.6130 H   0  0  0  0  0
  -13.6520    1.8320   -1.8940 H   0  0  0  0  0
  -15.8090    0.8120   -2.4420 H   0  0  0  0  0
  -14.6470   -0.4710   -2.0290 H   0  0  0  0  0
  -17.5240   -0.5960   -1.9860 H   0  0  0  0  0
  -16.3620   -1.8790   -1.5730 H   0  0  0  0  0
  -18.5170   -2.3860   -0.5290 H   0  0  0  0  0
  -17.3420   -1.9580    0.7380 H   0  0  0  0  0
  -19.3570   -0.8950    0.9960 H   0  0  0  0  0
  1  2  1  0  0  0
  1 44  1  0  0  0
  2  3  1  0  0  0
  2 45  1  0  0  0
  2 46  1  0  0  0
  3  4  1  0  0  0
  3 47  1  0  0  0
  3 48  1  0  0  0
  4  5  1  0  0  0
  5  6  1  0  0  0
  5 49  1  0  0  0
  5 50  1  0  0  0
  6  7  1  0  0  0
  6 51  1  0  0  0
  6 52  1  0  0  0
  7  8  1  0  0  0
  8  9  1  0  0  0
  8 53  1  0  0  0
  8 54  1  0  0  0
  9 10  1  0  0  0
  9 55  1  0  0  0
  9 56  1  0  0  0
 10 11  1  0  0  0
 11 12  1  0  0  0
 11 57  1  0  0  0
 11 58  1  0  0  0
 12 13  1  0  0  0
 12 59  1  0  0  0
 12 60  1  0  0  0
 13 14  1  0  0  0
 14 15  1  0  0  0
 14 61  1  0  0  0
 14 62  1  0  0  0
 15 16  1  0  0  0
 15 63  1  0  0  0
 15 64  1  0  0  0
 16 17  1  0  0  0
 17 18  1  0  0  0
 17 65  1  0  0  0
 17 66  1  0  0  0
 18 19  1  0  0  0
 18 67  1  0  0  0
 18 68  1  0  0  0
 19 20  1  0  0  0
 20 21  1  0  0  0
 20 69  1  0  0  0
 20 70  1  0  0  0
 21 22  1  0  0  0
 21 71  1  0  0  0
 21 72  1  0  0  0
 22 23  1  0  0  0
 23 24  1  0  0  0
 23 73  1  0  0  0
 23 74  1  0  0  0
 24 25  1  0  0  0
 24 75  1  0  0  0
 24 76  1  0  0  0
 25 26  1  0  0  0
 26 27  1  0  0  0
 26 77  1  0  0  0
 26 78  1  0  0  0
 27 28  1  0  0  0
 27 79  1  0  0  0
 27 80  1  0  0  0
 28 29  1  0  0  0
 29 30  1  0  0  0
 29 81  1  0  0  0
 29 82  1  0  0  0
 30 31  1  0  0  0
 30 83  1  0  0  0
 30 84  1  0  0  0
 31 32  1  0  0  0
 32 33  1  0  0  0
 32 85  1  0  0  0
 32 86  1  0  0  0
 33 34  1  0  0  0
 33 87  1  0  0  0
 33 88  1  0  0  0
 34 35  1  0  0  0
 35 36  1  0  0  0
 35 89  1  0  0  0
 35 90  1  0  0  0
 36 37  1  0  0  0
 36 91  1  0  0  0
 36 92  1  0  0  0
 37 38  1  0  0  0
 38 39  1  0  0  0
 38 93  1  0  0  0
 38 94  1  0  0  0
 39 40  1  0  0  0
 39 95  1  0  0  0
 39 96  1  0  0  0
 40 41  1  0  0  0
 41 42  1  0  0  0
 41 97  1  0  0  0
 41 98  1  0  0  0
 42 43  1  0  0  0
 42 99  1  0  0  0
 42100  1  0  0  0
 43101  1  0  0  0
M  END
$$$$
