PE5
  CCTOOLS-0919241031

 65 64  0  0  0  0  0  0  0  0999 V2000
    1.6880    1.0150   11.1340 C   0  0  0  0  0
    1.6370   -0.2480   10.2730 C   0  0  0  0  0
    0.4700   -0.2160    9.4490 O   0  0  0  0  0
    0.4790   -1.4160    8.6730 C   0  0  0  0  0
   -0.7500   -1.4440    7.7630 C   0  0  0  0  0
   -0.7230   -0.3130    6.8910 O   0  0  0  0  0
   -1.8910   -0.3960    6.0710 C   0  0  0  0  0
   -1.9230    0.7920    5.1080 C   0  0  0  0  0
   -0.7580    0.7670    4.2810 O   0  0  0  0  0
   -0.8470    1.8950    3.4090 C   0  0  0  0  0
    0.3760    1.9280    2.4920 C   0  0  0  0  0
    0.4230    0.7290    1.7160 O   0  0  0  0  0
    1.5810    0.8200    0.8840 C   0  0  0  0  0
    1.6900   -0.4390    0.0230 C   0  0  0  0  0
    0.5250   -0.5590   -0.7940 O   0  0  0  0  0
    0.6860   -1.7480   -1.5710 C   0  0  0  0  0
   -0.5330   -1.9370   -2.4740 C   0  0  0  0  0
   -0.6590   -0.8120   -3.3460 O   0  0  0  0  0
   -1.8100   -1.0470   -4.1590 C   0  0  0  0  0
   -2.0030    0.1270   -5.1210 C   0  0  0  0  0
   -0.8490    0.2540   -5.9540 O   0  0  0  0  0
   -1.0890    1.3610   -6.8260 C   0  0  0  0  0
    0.1150    1.5530   -7.7490 C   0  0  0  0  0
    0.3130    0.3700   -8.5260 O   0  0  0  0  0
    1.4450    0.6110   -9.3640 C   0  0  0  0  0
    1.7130   -0.6230  -10.2270 C   0  0  0  0  0
    0.5680   -0.8940  -11.0390 O   0  0  0  0  0
    2.5780    0.9910   11.7630 H   0  0  0  0  0
    1.7230    1.8930   10.4890 H   0  0  0  0  0
    0.8000    1.0620   11.7640 H   0  0  0  0  0
    2.5250   -0.2950    9.6440 H   0  0  0  0  0
    1.6020   -1.1260   10.9180 H   0  0  0  0  0
    1.3830   -1.4480    8.0640 H   0  0  0  0  0
    0.4590   -2.2790    9.3390 H   0  0  0  0  0
   -0.7430   -2.3600    7.1720 H   0  0  0  0  0
   -1.6530   -1.4120    8.3720 H   0  0  0  0  0
   -1.8690   -1.3250    5.5010 H   0  0  0  0  0
   -2.7790   -0.3770    6.7020 H   0  0  0  0  0
   -2.8140    0.7280    4.4830 H   0  0  0  0  0
   -1.9450    1.7200    5.6780 H   0  0  0  0  0
   -1.7510    1.8180    2.8050 H   0  0  0  0  0
   -0.8820    2.8100    4.0010 H   0  0  0  0  0
    0.3090    2.7890    1.8260 H   0  0  0  0  0
    1.2810    2.0060    3.0950 H   0  0  0  0  0
    1.4980    1.6940    0.2390 H   0  0  0  0  0
    2.4700    0.9110    1.5080 H   0  0  0  0  0
    2.5740   -0.3700   -0.6110 H   0  0  0  0  0
    1.7730   -1.3140    0.6680 H   0  0  0  0  0
    1.5830   -1.6630   -2.1850 H   0  0  0  0  0
    0.7820   -2.6060   -0.9060 H   0  0  0  0  0
   -0.4110   -2.8440   -3.0660 H   0  0  0  0  0
   -1.4300   -2.0230   -1.8600 H   0  0  0  0  0
   -1.6710   -1.9650   -4.7300 H   0  0  0  0  0
   -2.6910   -1.1440   -3.5240 H   0  0  0  0  0
   -2.8810   -0.0510   -5.7420 H   0  0  0  0  0
   -2.1420    1.0450   -4.5510 H   0  0  0  0  0
   -1.9790    1.1660   -7.4240 H   0  0  0  0  0
   -1.2400    2.2640   -6.2330 H   0  0  0  0  0
   -0.0670    2.3980   -8.4140 H   0  0  0  0  0
    1.0040    1.7480   -7.1510 H   0  0  0  0  0
    1.2450    1.4670  -10.0080 H   0  0  0  0  0
    2.3180    0.8180   -8.7450 H   0  0  0  0  0
    2.5760   -0.4400  -10.8660 H   0  0  0  0  0
    1.9120   -1.4800   -9.5830 H   0  0  0  0  0
    0.7780   -1.6780  -11.5650 H   0  0  0  0  0
  1  2  1  0  0  0
  1 28  1  0  0  0
  1 29  1  0  0  0
  1 30  1  0  0  0
  2  3  1  0  0  0
  2 31  1  0  0  0
  2 32  1  0  0  0
  3  4  1  0  0  0
  4  5  1  0  0  0
  4 33  1  0  0  0
  4 34  1  0  0  0
  5  6  1  0  0  0
  5 35  1  0  0  0
  5 36  1  0  0  0
  6  7  1  0  0  0
  7  8  1  0  0  0
  7 37  1  0  0  0
  7 38  1  0  0  0
  8  9  1  0  0  0
  8 39  1  0  0  0
  8 40  1  0  0  0
  9 10  1  0  0  0
 10 11  1  0  0  0
 10 41  1  0  0  0
 10 42  1  0  0  0
 11 12  1  0  0  0
 11 43  1  0  0  0
 11 44  1  0  0  0
 12 13  1  0  0  0
 13 14  1  0  0  0
 13 45  1  0  0  0
 13 46  1  0  0  0
 14 15  1  0  0  0
 14 47  1  0  0  0
 14 48  1  0  0  0
 15 16  1  0  0  0
 16 17  1  0  0  0
 16 49  1  0  0  0
 16 50  1  0  0  0
 17 18  1  0  0  0
 17 51  1  0  0  0
 17 52  1  0  0  0
 18 19  1  0  0  0
 19 20  1  0  0  0
 19 53  1  0  0  0
 19 54  1  0  0  0
 20 21  1  0  0  0
 20 55  1  0  0  0
 20 56  1  0  0  0
 21 22  1  0  0  0
 22 23  1  0  0  0
 22 57  1  0  0  0
 22 58  1  0  0  0
 23 24  1  0  0  0
 23 59  1  0  0  0
 23 60  1  0  0  0
 24 25  1  0  0  0
 25 26  1  0  0  0
 25 61  1  0  0  0
 25 62  1  0  0  0
 26 27  1  0  0  0
 26 63  1  0  0  0
 26 64  1  0  0  0
 27 65  1  0  0  0
M  END
$$$$
