PE6
  CCTOOLS-0919241031

 50 49  0  0  0  0  0  0  0  0999 V2000
   -0.1080    1.3120   -4.9500 C   0  0  0  0  0
   -0.4640    0.1650   -5.7230 O   0  0  0  0  0
    0.6950   -0.0350   -6.8200 P   0  0  0  0  0
    1.9910   -0.2450   -6.1350 O   0  0  0  0  0
    0.3560   -1.3190   -7.7320 O   0  0  0  0  0
   -1.1760    1.5600   -3.8830 C   0  0  0  0  0
   -1.2680    0.4190   -3.0270 O   0  0  0  0  0
   -2.2760    0.7110   -2.0570 C   0  0  0  0  0
   -2.4260   -0.4760   -1.1040 C   0  0  0  0  0
   -1.1820   -0.7150   -0.4420 O   0  0  0  0  0
   -1.3860   -1.8300    0.4280 C   0  0  0  0  0
   -0.0860   -2.1400    1.1720 C   0  0  0  0  0
    0.3060   -1.0010    1.9400 O   0  0  0  0  0
    0.1730   -0.5260    9.7150 O   0  0  0  0  0
   -1.0280   -0.1400    9.0460 C   0  0  0  0  0
   -0.7260    1.0000    8.0720 C   0  0  0  0  0
    0.2350    0.5630    7.1100 O   0  0  0  0  0
    0.4740    1.6670    6.2350 C   0  0  0  0  0
    1.5010    1.2640    5.1740 C   0  0  0  0  0
    0.9990    0.1580    4.4210 O   0  0  0  0  0
    1.9970   -0.1680    3.4530 C   0  0  0  0  0
    1.5200   -1.3510    2.6080 C   0  0  0  0  0
    0.7870    1.2740   -7.7510 O   0  0  0  0  0
   -0.0370    2.1830   -5.6020 H   0  0  0  0  0
    0.8540    1.1410   -4.4680 H   0  0  0  0  0
    1.0740   -1.4030   -8.3740 H   0  0  0  0  0
   -2.1380    1.7320   -4.3640 H   0  0  0  0  0
   -0.9040    2.4360   -3.2930 H   0  0  0  0  0
   -3.2240    0.8930   -2.5620 H   0  0  0  0  0
   -1.9900    1.5970   -1.4910 H   0  0  0  0  0
   -2.7120   -1.3620   -1.6710 H   0  0  0  0  0
   -3.1950   -0.2540   -0.3650 H   0  0  0  0  0
   -1.6850   -2.6990   -0.1570 H   0  0  0  0  0
   -2.1680   -1.5900    1.1480 H   0  0  0  0  0
    0.6960   -2.3790    0.4520 H   0  0  0  0  0
   -0.2410   -2.9900    1.8360 H   0  0  0  0  0
   -0.0600   -1.2460   10.3170 H   0  0  0  0  0
   -1.4260   -0.9920    8.4940 H   0  0  0  0  0
   -1.7620    0.1920    9.7800 H   0  0  0  0  0
   -1.6430    1.2940    7.5620 H   0  0  0  0  0
   -0.3280    1.8520    8.6230 H   0  0  0  0  0
   -0.4580    1.9530    5.7470 H   0  0  0  0  0
    0.8570    2.5100    6.8090 H   0  0  0  0  0
    1.6830    2.1060    4.5060 H   0  0  0  0  0
    2.4330    0.9780    5.6610 H   0  0  0  0  0
    2.1730    0.6910    2.8070 H   0  0  0  0  0
    2.9230   -0.4350    3.9620 H   0  0  0  0  0
    2.2820   -1.6010    1.8690 H   0  0  0  0  0
    1.3440   -2.2110    3.2540 H   0  0  0  0  0
   -0.0740    1.3740   -8.1780 H   0  0  0  0  0
  1  2  1  0  0  0
  1  6  1  0  0  0
  1 24  1  0  0  0
  1 25  1  0  0  0
  2  3  1  0  0  0
  3  4  2  0  0  0
  3  5  1  0  0  0
  3 23  1  0  0  0
  5 26  1  0  0  0
  6  7  1  0  0  0
  6 27  1  0  0  0
  6 28  1  0  0  0
  7  8  1  0  0  0
  8  9  1  0  0  0
  8 29  1  0  0  0
  8 30  1  0  0  0
  9 10  1  0  0  0
  9 31  1  0  0  0
  9 32  1  0  0  0
 10 11  1  0  0  0
 11 12  1  0  0  0
 11 33  1  0  0  0
 11 34  1  0  0  0
 12 13  1  0  0  0
 12 35  1  0  0  0
 12 36  1  0  0  0
 13 22  1  0  0  0
 14 15  1  0  0  0
 14 37  1  0  0  0
 15 16  1  0  0  0
 15 38  1  0  0  0
 15 39  1  0  0  0
 16 17  1  0  0  0
 16 40  1  0  0  0
 16 41  1  0  0  0
 17 18  1  0  0  0
 18 19  1  0  0  0
 18 42  1  0  0  0
 18 43  1  0  0  0
 19 20  1  0  0  0
 19 44  1  0  0  0
 19 45  1  0  0  0
 20 21  1  0  0  0
 21 22  1  0  0  0
 21 46  1  0  0  0
 21 47  1  0  0  0
 22 48  1  0  0  0
 22 49  1  0  0  0
 23 50  1  0  0  0
M  END
$$$$
