PE8
  CCTOOLS-0919241031

 59 58  0  0  0  0  0  0  0  0999 V2000
    0.8330    0.5730   10.2330 O   0  0  0  0  0
    1.5750   -0.3800    9.4710 C   0  0  0  0  0
    0.6140   -1.2040    8.6110 C   0  0  0  0  0
   -0.0960   -0.3350    7.7260 O   0  0  0  0  0
   -0.9730   -1.1590    6.9550 C   0  0  0  0  0
   -1.7680   -0.2860    5.9810 C   0  0  0  0  0
   -0.8660    0.3970    5.1090 O   0  0  0  0  0
   -1.6650    1.1910    4.2290 C   0  0  0  0  0
   -0.7560    1.9530    3.2640 C   0  0  0  0  0
    0.0130    1.0230    2.4990 O   0  0  0  0  0
    0.8380    1.7920    1.6210 C   0  0  0  0  0
    1.6920    0.8510    0.7690 C   0  0  0  0  0
    0.8410    0.0000    0.0000 O   0  0  0  0  0
    1.6930   -0.8490   -0.7690 C   0  0  0  0  0
    0.8400   -1.7910   -1.6210 C   0  0  0  0  0
    0.0150   -1.0230   -2.4990 O   0  0  0  0  0
   -0.7530   -1.9540   -3.2630 C   0  0  0  0  0
   -1.6630   -1.1930   -4.2290 C   0  0  0  0  0
   -0.8660   -0.3980   -5.1090 O   0  0  0  0  0
   -1.7690    0.2840   -5.9810 C   0  0  0  0  0
   -0.9750    1.1580   -6.9550 C   0  0  0  0  0
   -0.0970    0.3350   -7.7260 O   0  0  0  0  0
    0.6110    1.2040   -8.6110 C   0  0  0  0  0
    1.5740    0.3820   -9.4710 C   0  0  0  0  0
    0.8340   -0.5720  -10.2330 O   0  0  0  0  0
    1.4750    1.0700   10.7600 H   0  0  0  0  0
    2.1170   -1.0430   10.1450 H   0  0  0  0  0
    2.2830    0.1400    8.8260 H   0  0  0  0  0
   -0.0940   -1.7250    9.2550 H   0  0  0  0  0
    1.1790   -1.9310    8.0290 H   0  0  0  0  0
   -1.6610   -1.6810    7.6200 H   0  0  0  0  0
   -0.3870   -1.8870    6.3940 H   0  0  0  0  0
   -2.3540    0.4410    6.5420 H   0  0  0  0  0
   -2.4360   -0.9150    5.3930 H   0  0  0  0  0
   -2.2520    1.9000    4.8120 H   0  0  0  0  0
   -2.3350    0.5430    3.6630 H   0  0  0  0  0
   -0.0860    2.6000    3.8300 H   0  0  0  0  0
   -1.3650    2.5590    2.5920 H   0  0  0  0  0
    1.4870    2.4410    2.2080 H   0  0  0  0  0
    0.2080    2.4000    0.9710 H   0  0  0  0  0
    2.3220    0.2440    1.4190 H   0  0  0  0  0
    2.3210    1.4380    0.0990 H   0  0  0  0  0
    2.3230   -1.4350   -0.1000 H   0  0  0  0  0
    2.3220   -0.2410   -1.4190 H   0  0  0  0  0
    0.2110   -2.3990   -0.9710 H   0  0  0  0  0
    1.4900   -2.4390   -2.2080 H   0  0  0  0  0
   -1.3610   -2.5610   -2.5920 H   0  0  0  0  0
   -0.0820   -2.6010   -3.8300 H   0  0  0  0  0
   -2.3340   -0.5470   -3.6630 H   0  0  0  0  0
   -2.2500   -1.9030   -4.8120 H   0  0  0  0  0
   -2.4380    0.9110   -5.3930 H   0  0  0  0  0
   -2.3530   -0.4440   -6.5420 H   0  0  0  0  0
   -0.3900    1.8870   -6.3940 H   0  0  0  0  0
   -1.6630    1.6780   -7.6200 H   0  0  0  0  0
    1.1760    1.9330   -8.0290 H   0  0  0  0  0
   -0.0970    1.7250   -9.2550 H   0  0  0  0  0
    2.2830   -0.1370   -8.8260 H   0  0  0  0  0
    2.1150    1.0450  -10.1460 H   0  0  0  0  0
    1.4760   -1.0680  -10.7600 H   0  0  0  0  0
  1  2  1  0  0  0
  1 26  1  0  0  0
  2  3  1  0  0  0
  2 27  1  0  0  0
  2 28  1  0  0  0
  3  4  1  0  0  0
  3 29  1  0  0  0
  3 30  1  0  0  0
  4  5  1  0  0  0
  5  6  1  0  0  0
  5 31  1  0  0  0
  5 32  1  0  0  0
  6  7  1  0  0  0
  6 33  1  0  0  0
  6 34  1  0  0  0
  7  8  1  0  0  0
  8  9  1  0  0  0
  8 35  1  0  0  0
  8 36  1  0  0  0
  9 10  1  0  0  0
  9 37  1  0  0  0
  9 38  1  0  0  0
 10 11  1  0  0  0
 11 12  1  0  0  0
 11 39  1  0  0  0
 11 40  1  0  0  0
 12 13  1  0  0  0
 12 41  1  0  0  0
 12 42  1  0  0  0
 13 14  1  0  0  0
 14 15  1  0  0  0
 14 43  1  0  0  0
 14 44  1  0  0  0
 15 16  1  0  0  0
 15 45  1  0  0  0
 15 46  1  0  0  0
 16 17  1  0  0  0
 17 18  1  0  0  0
 17 47  1  0  0  0
 17 48  1  0  0  0
 18 19  1  0  0  0
 18 49  1  0  0  0
 18 50  1  0  0  0
 19 20  1  0  0  0
 20 21  1  0  0  0
 20 51  1  0  0  0
 20 52  1  0  0  0
 21 22  1  0  0  0
 21 53  1  0  0  0
 21 54  1  0  0  0
 22 23  1  0  0  0
 23 24  1  0  0  0
 23 55  1  0  0  0
 23 56  1  0  0  0
 24 25  1  0  0  0
 24 57  1  0  0  0
 24 58  1  0  0  0
 25 59  1  0  0  0
M  END
$$$$
