PEE
  CCTOOLS-1004241120

129128  0  0  1  0  0  0  0  0999 V2000
   16.7040   -8.9570    0.2810 C   0  0  0  0  0
   15.6870   -7.9080    0.7350 C   0  0  0  0  0
   15.8820   -6.6240   -0.0750 C   0  0  0  0  0
   14.8650   -5.5750    0.3800 C   0  0  0  0  0
   15.0600   -4.2920   -0.4300 C   0  0  0  0  0
   14.0430   -3.2430    0.0250 C   0  0  0  0  0
   14.2380   -1.9600   -0.7850 C   0  0  0  0  0
   13.2210   -0.9110   -0.3310 C   0  0  0  0  0
   13.4120    0.3530   -1.1290 C   0  0  0  0  0
   12.3930    0.9020   -1.7420 C   0  0  0  0  0
   11.0020    0.3700   -1.5140 C   0  0  0  0  0
   10.0820    1.5150   -1.0870 C   0  0  0  0  0
    8.6690    0.9750   -0.8550 C   0  0  0  0  0
    7.7490    2.1210   -0.4280 C   0  0  0  0  0
    6.3360    1.5810   -0.1960 C   0  0  0  0  0
    5.4160    2.7260    0.2310 C   0  0  0  0  0
    4.0030    2.1860    0.4630 C   0  0  0  0  0
    3.0970    3.3140    0.8840 C   0  0  0  0  0
    3.5360    4.4350    0.9880 O   0  0  0  0  0
    1.8020    3.0740    1.1430 O   0  0  0  0  0
    0.9880    4.2080    1.5430 C   0  0  0  0  0
    0.3790    4.8610    0.3020 C   0  0  0  0  0
   -0.5260    3.9480   -0.3220 O   0  0  0  0  0
   -1.3500    4.3050   -1.6580 P   0  0  0  0  0
   -2.3830    5.5010   -1.3490 O   0  0  0  0  0
   -0.4100    4.7270   -2.7200 O   0  0  0  0  0
   -2.1660    3.0060   -2.1490 O   0  0  0  0  0
   -2.9120    2.9700   -3.3660 C   0  0  0  0  0
   -3.5600    1.5940   -3.5270 C   0  0  0  0  0
   -4.5480    1.3900   -2.4590 N   0  0  0  0  0
   -0.1310    3.7300    2.4700 C   0  0  0  0  0
   -1.0270    2.8550    1.7360 O   0  0  0  0  0
   -2.0700    2.3460    2.4100 C   0  0  0  0  0
   -2.2300    2.6230    3.5750 O   0  0  0  0  0
   -3.0430    1.4290    1.7140 C   0  0  0  0  0
   -4.1290    0.9950    2.6990 C   0  0  0  0  0
   -5.1170    0.0640    1.9920 C   0  0  0  0  0
   -6.2030   -0.3700    2.9780 C   0  0  0  0  0
   -7.1910   -1.3010    2.2710 C   0  0  0  0  0
   -8.2770   -1.7360    3.2570 C   0  0  0  0  0
   -9.2650   -2.6660    2.5500 C   0  0  0  0  0
  -10.3350   -3.0940    3.5210 C   0  0  0  0  0
  -11.5990   -2.9480    3.2090 C   0  0  0  0  0
  -11.9860   -2.5130    1.8190 C   0  0  0  0  0
  -12.9880   -3.5100    1.2330 C   0  0  0  0  0
  -13.3820   -3.0690   -0.1780 C   0  0  0  0  0
  -14.3840   -4.0660   -0.7630 C   0  0  0  0  0
  -14.7770   -3.6240   -2.1740 C   0  0  0  0  0
  -15.7790   -4.6210   -2.7600 C   0  0  0  0  0
  -16.1730   -4.1790   -4.1710 C   0  0  0  0  0
  -17.1750   -5.1760   -4.7570 C   0  0  0  0  0
   16.5660   -9.8710    0.8580 H   0  0  0  0  0
   16.5580   -9.1700   -0.7780 H   0  0  0  0  0
   17.7130   -8.5770    0.4390 H   0  0  0  0  0
   14.6780   -8.2880    0.5770 H   0  0  0  0  0
   15.8340   -7.6950    1.7940 H   0  0  0  0  0
   16.8910   -6.2450    0.0840 H   0  0  0  0  0
   15.7360   -6.8370   -1.1330 H   0  0  0  0  0
   13.8560   -5.9550    0.2220 H   0  0  0  0  0
   15.0120   -5.3630    1.4390 H   0  0  0  0  0
   16.0690   -3.9120   -0.2720 H   0  0  0  0  0
   14.9130   -4.5050   -1.4890 H   0  0  0  0  0
   13.0340   -3.6230   -0.1330 H   0  0  0  0  0
   14.1890   -3.0300    1.0840 H   0  0  0  0  0
   15.2470   -1.5800   -0.6270 H   0  0  0  0  0
   14.0910   -2.1730   -1.8440 H   0  0  0  0  0
   12.2110   -1.2910   -0.4890 H   0  0  0  0  0
   13.3670   -0.6980    0.7280 H   0  0  0  0  0
   14.3900    0.8070   -1.1950 H   0  0  0  0  0
   12.5500    1.7350   -2.4110 H   0  0  0  0  0
   10.6260   -0.0730   -2.4370 H   0  0  0  0  0
   11.0260   -0.3880   -0.7310 H   0  0  0  0  0
   10.4570    1.9580   -0.1640 H   0  0  0  0  0
   10.0570    2.2730   -1.8690 H   0  0  0  0  0
    8.2930    0.5330   -1.7780 H   0  0  0  0  0
    8.6930    0.2170   -0.0720 H   0  0  0  0  0
    8.1240    2.5630    0.4950 H   0  0  0  0  0
    7.7240    2.8790   -1.2110 H   0  0  0  0  0
    5.9600    1.1380   -1.1190 H   0  0  0  0  0
    6.3600    0.8230    0.5870 H   0  0  0  0  0
    5.7910    3.1680    1.1540 H   0  0  0  0  0
    5.3910    3.4840   -0.5520 H   0  0  0  0  0
    3.6280    1.7430   -0.4600 H   0  0  0  0  0
    4.0280    1.4280    1.2460 H   0  0  0  0  0
    1.6100    4.9330    2.0680 H   0  0  0  0  0
   -0.1590    5.7640    0.5940 H   0  0  0  0  0
    1.1720    5.1220   -0.3980 H   0  0  0  0  0
   -3.0300    5.2940   -0.6610 H   0  0  0  0  0
   -3.6880    3.7360   -3.3400 H   0  0  0  0  0
   -2.2450    3.1580   -4.2080 H   0  0  0  0  0
   -4.0560    1.5360   -4.4960 H   0  0  0  0  0
   -2.7930    0.8220   -3.4640 H   0  0  0  0  0
   -4.9900    0.4870   -2.5430 H   0  0  0  0  0
   -4.1260    1.5020   -1.5500 H   0  0  0  0  0
    0.3000    3.1860    3.3110 H   0  0  0  0  0
   -0.6880    4.5900    2.8420 H   0  0  0  0  0
   -3.5020    1.9550    0.8760 H   0  0  0  0  0
   -2.5140    0.5510    1.3450 H   0  0  0  0  0
   -3.6710    0.4690    3.5370 H   0  0  0  0  0
   -4.6590    1.8740    3.0680 H   0  0  0  0  0
   -5.5760    0.5900    1.1550 H   0  0  0  0  0
   -4.5880   -0.8150    1.6240 H   0  0  0  0  0
   -5.7450   -0.8960    3.8160 H   0  0  0  0  0
   -6.7320    0.5080    3.3460 H   0  0  0  0  0
   -7.6490   -0.7750    1.4340 H   0  0  0  0  0
   -6.6620   -2.1800    1.9030 H   0  0  0  0  0
   -7.8190   -2.2610    4.0940 H   0  0  0  0  0
   -8.8060   -0.8570    3.6250 H   0  0  0  0  0
   -9.7230   -2.1410    1.7120 H   0  0  0  0  0
   -8.7360   -3.5450    2.1810 H   0  0  0  0  0
  -10.0600   -3.5220    4.4740 H   0  0  0  0  0
  -12.3630   -3.1400    3.9470 H   0  0  0  0  0
  -12.4410   -1.5240    1.8620 H   0  0  0  0  0
  -11.0980   -2.4780    1.1880 H   0  0  0  0  0
  -12.5330   -4.5000    1.1900 H   0  0  0  0  0
  -13.8770   -3.5460    1.8640 H   0  0  0  0  0
  -13.8370   -2.0790   -0.1350 H   0  0  0  0  0
  -12.4930   -3.0330   -0.8080 H   0  0  0  0  0
  -13.9290   -5.0550   -0.8060 H   0  0  0  0  0
  -15.2720   -4.1010   -0.1330 H   0  0  0  0  0
  -15.2320   -2.6340   -2.1320 H   0  0  0  0  0
  -13.8890   -3.5890   -2.8050 H   0  0  0  0  0
  -15.3240   -5.6110   -2.8030 H   0  0  0  0  0
  -16.6670   -4.6560   -2.1290 H   0  0  0  0  0
  -16.6280   -3.1900   -4.1280 H   0  0  0  0  0
  -15.2850   -4.1440   -4.8020 H   0  0  0  0  0
  -17.4550   -4.8610   -5.7620 H   0  0  0  0  0
  -16.7200   -6.1660   -4.8000 H   0  0  0  0  0
  -18.0630   -5.2120   -4.1260 H   0  0  0  0  0
  1 52  1  0  0  0
  1 53  1  0  0  0
  1 54  1  0  0  0
  2  3  1  0  0  0
  2  1  1  0  0  0
  2 55  1  0  0  0
  2 56  1  0  0  0
  3 57  1  0  0  0
  3 58  1  0  0  0
  4  3  1  0  0  0
  4 59  1  0  0  0
  4 60  1  0  0  0
  5  4  1  0  0  0
  5 61  1  0  0  0
  5 62  1  0  0  0
  6  5  1  0  0  0
  6 63  1  0  0  0
  6 64  1  0  0  0
  7  6  1  0  0  0
  7 65  1  0  0  0
  7 66  1  0  0  0
  8  7  1  0  0  0
  8 67  1  0  0  0
  8 68  1  0  0  0
  9  8  1  0  0  0
  9 69  1  0  0  0
 10  9  2  0  0  0
 10 70  1  0  0  0
 11 10  1  0  0  0
 11 71  1  0  0  0
 11 72  1  0  0  0
 12 11  1  0  0  0
 12 73  1  0  0  0
 12 74  1  0  0  0
 13 12  1  0  0  0
 13 75  1  0  0  0
 13 76  1  0  0  0
 14 13  1  0  0  0
 14 77  1  0  0  0
 14 78  1  0  0  0
 15 14  1  0  0  0
 15 79  1  0  0  0
 15 80  1  0  0  0
 16 15  1  0  0  0
 16 81  1  0  0  0
 16 82  1  0  0  0
 17 16  1  0  0  0
 17 83  1  0  0  0
 17 84  1  0  0  0
 18 19  2  0  0  0
 18 17  1  0  0  0
 20 18  1  0  0  0
 21 31  1  0  0  0
 21 20  1  0  0  0
 21 85  1  0  0  0
 22 23  1  0  0  0
 22 21  1  0  0  0
 22 86  1  0  0  0
 22 87  1  0  0  0
 23 24  1  0  0  0
 24 25  1  0  0  0
 25 88  1  0  0  0
 26 24  2  0  0  0
 27 24  1  0  0  0
 28 27  1  0  0  0
 28 89  1  0  0  0
 28 90  1  0  0  0
 29 28  1  0  0  0
 29 91  1  0  0  0
 29 92  1  0  0  0
 30 29  1  0  0  0
 30 93  1  0  0  0
 30 94  1  0  0  0
 31 32  1  0  0  0
 31 95  1  0  0  0
 31 96  1  0  0  0
 33 32  1  0  0  0
 33 34  2  0  0  0
 35 33  1  0  0  0
 35 36  1  0  0  0
 35 97  1  0  0  0
 35 98  1  0  0  0
 36 99  1  0  0  0
 36100  1  0  0  0
 37 36  1  0  0  0
 37 38  1  0  0  0
 37101  1  0  0  0
 37102  1  0  0  0
 38 39  1  0  0  0
 38103  1  0  0  0
 38104  1  0  0  0
 39 40  1  0  0  0
 39105  1  0  0  0
 39106  1  0  0  0
 40 41  1  0  0  0
 40107  1  0  0  0
 40108  1  0  0  0
 41 42  1  0  0  0
 41109  1  0  0  0
 41110  1  0  0  0
 42 43  2  0  0  0
 42111  1  0  0  0
 43 44  1  0  0  0
 43112  1  0  0  0
 44 45  1  0  0  0
 44113  1  0  0  0
 44114  1  0  0  0
 45 46  1  0  0  0
 45115  1  0  0  0
 45116  1  0  0  0
 46 47  1  0  0  0
 46117  1  0  0  0
 46118  1  0  0  0
 47 48  1  0  0  0
 47119  1  0  0  0
 47120  1  0  0  0
 48 49  1  0  0  0
 48121  1  0  0  0
 48122  1  0  0  0
 49123  1  0  0  0
 49124  1  0  0  0
 50 51  1  0  0  0
 50 49  1  0  0  0
 50125  1  0  0  0
 50126  1  0  0  0
 51127  1  0  0  0
 51128  1  0  0  0
 51129  1  0  0  0
M  END
$$$$
