PEU
  CCTOOLS-0919241031

195194  0  0  0  0  0  0  0  0999 V2000
  -36.6280    1.6350    0.4090 C   0  0  0  0  0
  -35.7650    0.4990    0.3300 O   0  0  0  0  0
  -34.9080    0.5510    1.4730 C   0  0  0  0  0
  -33.9520   -0.6440    1.4490 C   0  0  0  0  0
  -33.0840   -0.5360    0.3190 O   0  0  0  0  0
  -32.2210   -1.6750    0.3520 C   0  0  0  0  0
  -31.2600   -1.6210   -0.8370 C   0  0  0  0  0
  -30.3980   -0.4900   -0.7020 O   0  0  0  0  0
  -29.5290   -0.4950   -1.8360 C   0  0  0  0  0
  -28.5750    0.6990   -1.7530 C   0  0  0  0  0
  -27.7180    0.5450   -0.6200 O   0  0  0  0  0
  -26.8550    1.6840   -0.5970 C   0  0  0  0  0
  -25.9060    1.5820    0.5990 C   0  0  0  0  0
  -25.0420    0.4560    0.4270 O   0  0  0  0  0
  -24.1860    0.4150    1.5690 C   0  0  0  0  0
  -23.2300   -0.7740    1.4470 C   0  0  0  0  0
  -22.3610   -0.5730    0.3300 O   0  0  0  0  0
  -21.4980   -1.7110    0.2700 C   0  0  0  0  0
  -20.5370   -1.5590   -0.9110 C   0  0  0  0  0
  -19.6750   -0.4410   -0.6830 O   0  0  0  0  0
  -18.8060   -0.3530   -1.8140 C   0  0  0  0  0
  -17.8530    0.8300   -1.6330 C   0  0  0  0  0
  -16.9950    0.5840   -0.5170 O   0  0  0  0  0
  -16.1330    1.7180   -0.4000 C   0  0  0  0  0
  -15.1850    1.5180    0.7840 C   0  0  0  0  0
  -14.3200    0.4110    0.5190 O   0  0  0  0  0
  -13.4630    0.2760    1.6550 C   0  0  0  0  0
  -12.5070   -0.8980    1.4350 C   0  0  0  0  0
  -11.6380   -0.6070    0.3390 O   0  0  0  0  0
  -10.7750   -1.7340    0.1850 C   0  0  0  0  0
   -9.8140   -1.4850   -0.9800 C   0  0  0  0  0
   -8.9530   -0.3900   -0.6610 O   0  0  0  0  0
   -8.0840   -0.2090   -1.7810 C   0  0  0  0  0
   -7.1310    0.9560   -1.5030 C   0  0  0  0  0
   -6.2730    0.6190   -0.4100 O   0  0  0  0  0
   -5.4120    1.7400   -0.2010 C   0  0  0  0  0
   -4.4630    1.4430    0.9620 C   0  0  0  0  0
   -3.5980    0.3620    0.6080 O   0  0  0  0  0
   -2.7410    0.1350    1.7280 C   0  0  0  0  0
   -1.7840   -1.0170    1.4130 C   0  0  0  0  0
   -0.9160   -0.6360    0.3440 O   0  0  0  0  0
   -0.0510   -1.7470    0.0980 C   0  0  0  0  0
    0.9090   -1.4020   -1.0420 C   0  0  0  0  0
    1.7700   -0.3370   -0.6340 O   0  0  0  0  0
    2.6390   -0.0630   -1.7350 C   0  0  0  0  0
    3.5910    1.0750   -1.3630 C   0  0  0  0  0
    4.4490    0.6500   -0.3010 O   0  0  0  0  0
    5.3100    1.7500    0.0000 C   0  0  0  0  0
    6.2590    1.3590    1.1340 C   0  0  0  0  0
    7.1240    0.3110    0.6920 O   0  0  0  0  0
    7.9810   -0.0070    1.7900 C   0  0  0  0  0
    8.9390   -1.1290    1.3810 C   0  0  0  0  0
    9.8070   -0.6600    0.3470 O   0  0  0  0  0
   10.6720   -1.7470    0.0110 C   0  0  0  0  0
   11.6320   -1.3100   -1.0970 C   0  0  0  0  0
   12.4920   -0.2810   -0.6030 O   0  0  0  0  0
   13.3610    0.0830   -1.6780 C   0  0  0  0  0
   14.3130    1.1870   -1.2130 C   0  0  0  0  0
   15.1710    0.6760   -0.1900 O   0  0  0  0  0
   16.0310    1.7480    0.2000 C   0  0  0  0  0
   16.9810    1.2660    1.2990 C   0  0  0  0  0
   17.8460    0.2580    0.7720 O   0  0  0  0  0
   18.7040   -0.1490    1.8400 C   0  0  0  0  0
   19.6610   -1.2330    1.3400 C   0  0  0  0  0
   20.5300   -0.6800    0.3480 O   0  0  0  0  0
   21.3950   -1.7350   -0.0770 C   0  0  0  0  0
   22.3550   -1.2080   -1.1450 C   0  0  0  0  0
   23.2150   -0.2230   -0.5670 O   0  0  0  0  0
   24.0830    0.2280   -1.6090 C   0  0  0  0  0
   25.0350    1.2900   -1.0550 C   0  0  0  0  0
   25.8930    0.6980   -0.0770 O   0  0  0  0  0
   26.7530    1.7340    0.4000 C   0  0  0  0  0
   27.7020    1.1640    1.4550 C   0  0  0  0  0
   28.5690    0.2040    0.8470 O   0  0  0  0  0
   29.4260   -0.2900    1.8780 C   0  0  0  0  0
   30.3840   -1.3280    1.2910 C   0  0  0  0  0
   31.2520   -0.6960    0.3480 O   0  0  0  0  0
   32.1180   -1.7120   -0.1620 C   0  0  0  0  0
   33.0780   -1.0980   -1.1830 C   0  0  0  0  0
   33.9370   -0.1640   -0.5270 O   0  0  0  0  0
   34.8050    0.3720   -1.5280 C   0  0  0  0  0
   35.7570    1.3860   -0.8880 C   0  0  0  0  0
   36.6150    0.7150    0.0370 O   0  0  0  0  0
  -37.3040    1.6380   -0.4460 H   0  0  0  0  0
  -37.2080    1.5870    1.3310 H   0  0  0  0  0
  -36.0310    2.5470    0.4040 H   0  0  0  0  0
  -34.3320    1.4770    1.4530 H   0  0  0  0  0
  -35.5100    0.5170    2.3800 H   0  0  0  0  0
  -33.3600   -0.6540    2.3630 H   0  0  0  0  0
  -34.5270   -1.5670    1.3780 H   0  0  0  0  0
  -31.6500   -1.6720    1.2810 H   0  0  0  0  0
  -32.8180   -2.5850    0.2960 H   0  0  0  0  0
  -30.6620   -2.5320   -0.8620 H   0  0  0  0  0
  -31.8300   -1.5350   -1.7620 H   0  0  0  0  0
  -28.9530   -1.4200   -1.8490 H   0  0  0  0  0
  -30.1210   -0.4230   -2.7480 H   0  0  0  0  0
  -27.9720    0.7460   -2.6600 H   0  0  0  0  0
  -29.1510    1.6180   -1.6510 H   0  0  0  0  0
  -26.2750    1.7190   -1.5190 H   0  0  0  0  0
  -27.4530    2.5910   -0.5100 H   0  0  0  0  0
  -25.3090    2.4910    0.6680 H   0  0  0  0  0
  -26.4870    1.4570    1.5130 H   0  0  0  0  0
  -23.6110    1.3390    1.6260 H   0  0  0  0  0
  -24.7880    0.3060    2.4710 H   0  0  0  0  0
  -22.6370   -0.8580    2.3580 H   0  0  0  0  0
  -23.8040   -1.6880    1.3010 H   0  0  0  0  0
  -20.9270   -1.7830    1.1960 H   0  0  0  0  0
  -22.0940   -2.6130    0.1390 H   0  0  0  0  0
  -19.9380   -2.4640   -1.0110 H   0  0  0  0  0
  -21.1070   -1.3970   -1.8250 H   0  0  0  0  0
  -18.2300   -1.2740   -1.9030 H   0  0  0  0  0
  -19.3990   -0.2060   -2.7170 H   0  0  0  0  0
  -17.2500    0.9520   -2.5330 H   0  0  0  0  0
  -18.4290    1.7380   -1.4560 H   0  0  0  0  0
  -15.5530    1.8290   -1.3160 H   0  0  0  0  0
  -16.7320    2.6140   -0.2380 H   0  0  0  0  0
  -14.5880    2.4180    0.9270 H   0  0  0  0  0
  -15.7650    1.3180    1.6850 H   0  0  0  0  0
  -12.8890    1.1920    1.7870 H   0  0  0  0  0
  -14.0650    0.0920    2.5450 H   0  0  0  0  0
  -11.9140   -1.0570    2.3360 H   0  0  0  0  0
  -13.0810   -1.7980    1.2140 H   0  0  0  0  0
  -10.2040   -1.8830    1.1010 H   0  0  0  0  0
  -11.3710   -2.6240   -0.0200 H   0  0  0  0  0
   -9.2150   -2.3800   -1.1540 H   0  0  0  0  0
  -10.3840   -1.2490   -1.8780 H   0  0  0  0  0
   -7.5070   -1.1190   -1.9450 H   0  0  0  0  0
   -8.6770    0.0110   -2.6690 H   0  0  0  0  0
   -6.5280    1.1520   -2.3900 H   0  0  0  0  0
   -7.7080    1.8450   -1.2510 H   0  0  0  0  0
   -4.8320    1.9260   -1.1050 H   0  0  0  0  0
   -6.0110    2.6200    0.0340 H   0  0  0  0  0
   -3.8670    2.3290    1.1800 H   0  0  0  0  0
   -5.0430    1.1700    1.8440 H   0  0  0  0  0
   -2.1670    1.0370    1.9360 H   0  0  0  0  0
   -3.3430   -0.1220    2.6000 H   0  0  0  0  0
   -1.1910   -1.2490    2.2980 H   0  0  0  0  0
   -2.3580   -1.8960    1.1190 H   0  0  0  0  0
    0.5190   -1.9700    0.9990 H   0  0  0  0  0
   -0.6470   -2.6160   -0.1790 H   0  0  0  0  0
    1.5080   -2.2790   -1.2890 H   0  0  0  0  0
    0.3390   -1.0930   -1.9180 H   0  0  0  0  0
    3.2160   -0.9570   -1.9740 H   0  0  0  0  0
    2.0460    0.2290   -2.6020 H   0  0  0  0  0
    4.1930    1.3430   -2.2310 H   0  0  0  0  0
    3.0140    1.9410   -1.0390 H   0  0  0  0  0
    5.8900    2.0100   -0.8860 H   0  0  0  0  0
    4.7110    2.6070    0.3060 H   0  0  0  0  0
    6.8550    2.2250    1.4240 H   0  0  0  0  0
    5.6790    1.0140    1.9900 H   0  0  0  0  0
    8.5550    0.8760    2.0710 H   0  0  0  0  0
    7.3790   -0.3350    2.6380 H   0  0  0  0  0
    9.5320   -1.4330    2.2440 H   0  0  0  0  0
    8.3650   -1.9810    1.0160 H   0  0  0  0  0
   11.2430   -2.0430    0.8910 H   0  0  0  0  0
   10.0760   -2.5910   -0.3370 H   0  0  0  0  0
   12.2320   -2.1620   -1.4160 H   0  0  0  0  0
   11.0610   -0.9300   -1.9440 H   0  0  0  0  0
   13.9380   -0.7880   -1.9890 H   0  0  0  0  0
   12.7680    0.4450   -2.5180 H   0  0  0  0  0
   14.9150    1.5260   -2.0560 H   0  0  0  0  0
   13.7350    2.0230   -0.8190 H   0  0  0  0  0
   16.6110    2.0800   -0.6610 H   0  0  0  0  0
   15.4320    2.5770    0.5760 H   0  0  0  0  0
   17.5760    2.1050    1.6590 H   0  0  0  0  0
   16.4010    0.8510    2.1240 H   0  0  0  0  0
   19.2770    0.7080    2.1930 H   0  0  0  0  0
   18.1020   -0.5460    2.6580 H   0  0  0  0  0
   20.2550   -1.6070    2.1750 H   0  0  0  0  0
   19.0880   -2.0520    0.9060 H   0  0  0  0  0
   21.9660   -2.1030    0.7760 H   0  0  0  0  0
   20.8000   -2.5480   -0.4930 H   0  0  0  0  0
   22.9550   -2.0310   -1.5320 H   0  0  0  0  0
   21.7840   -0.7600   -1.9580 H   0  0  0  0  0
   24.6610   -0.6130   -1.9910 H   0  0  0  0  0
   23.4900    0.6580   -2.4160 H   0  0  0  0  0
   25.6370    1.6980   -1.8670 H   0  0  0  0  0
   24.4570    2.0910   -0.5930 H   0  0  0  0  0
   27.3330    2.1370   -0.4310 H   0  0  0  0  0
   26.1530    2.5290    0.8430 H   0  0  0  0  0
   28.2980    1.9710    1.8830 H   0  0  0  0  0
   27.1230    0.6830    2.2430 H   0  0  0  0  0
   29.9990    0.5350    2.3010 H   0  0  0  0  0
   28.8250   -0.7530    2.6610 H   0  0  0  0  0
   30.9780   -1.7690    2.0920 H   0  0  0  0  0
   29.8120   -2.1090    0.7910 H   0  0  0  0  0
   32.6890   -2.1480    0.6570 H   0  0  0  0  0
   31.5230   -2.4880   -0.6440 H   0  0  0  0  0
   33.6780   -1.8860   -1.6380 H   0  0  0  0  0
   32.5070   -0.5850   -1.9570 H   0  0  0  0  0
   35.3830   -0.4350   -1.9780 H   0  0  0  0  0
   34.2120    0.8670   -2.2970 H   0  0  0  0  0
   36.3580    1.8590   -1.6640 H   0  0  0  0  0
   35.1780    2.1450   -0.3620 H   0  0  0  0  0
   37.1970    1.3880    0.4170 H   0  0  0  0  0
  1  2  1  0  0  0
  1 84  1  0  0  0
  1 85  1  0  0  0
  1 86  1  0  0  0
  2  3  1  0  0  0
  3  4  1  0  0  0
  3 87  1  0  0  0
  3 88  1  0  0  0
  4  5  1  0  0  0
  4 89  1  0  0  0
  4 90  1  0  0  0
  5  6  1  0  0  0
  6  7  1  0  0  0
  6 91  1  0  0  0
  6 92  1  0  0  0
  7  8  1  0  0  0
  7 93  1  0  0  0
  7 94  1  0  0  0
  8  9  1  0  0  0
  9 10  1  0  0  0
  9 95  1  0  0  0
  9 96  1  0  0  0
 10 11  1  0  0  0
 10 97  1  0  0  0
 10 98  1  0  0  0
 11 12  1  0  0  0
 12 13  1  0  0  0
 12 99  1  0  0  0
 12100  1  0  0  0
 13 14  1  0  0  0
 13101  1  0  0  0
 13102  1  0  0  0
 14 15  1  0  0  0
 15 16  1  0  0  0
 15103  1  0  0  0
 15104  1  0  0  0
 16 17  1  0  0  0
 16105  1  0  0  0
 16106  1  0  0  0
 17 18  1  0  0  0
 18 19  1  0  0  0
 18107  1  0  0  0
 18108  1  0  0  0
 19 20  1  0  0  0
 19109  1  0  0  0
 19110  1  0  0  0
 20 21  1  0  0  0
 21 22  1  0  0  0
 21111  1  0  0  0
 21112  1  0  0  0
 22 23  1  0  0  0
 22113  1  0  0  0
 22114  1  0  0  0
 23 24  1  0  0  0
 24 25  1  0  0  0
 24115  1  0  0  0
 24116  1  0  0  0
 25 26  1  0  0  0
 25117  1  0  0  0
 25118  1  0  0  0
 26 27  1  0  0  0
 27 28  1  0  0  0
 27119  1  0  0  0
 27120  1  0  0  0
 28 29  1  0  0  0
 28121  1  0  0  0
 28122  1  0  0  0
 29 30  1  0  0  0
 30 31  1  0  0  0
 30123  1  0  0  0
 30124  1  0  0  0
 31 32  1  0  0  0
 31125  1  0  0  0
 31126  1  0  0  0
 32 33  1  0  0  0
 33 34  1  0  0  0
 33127  1  0  0  0
 33128  1  0  0  0
 34 35  1  0  0  0
 34129  1  0  0  0
 34130  1  0  0  0
 35 36  1  0  0  0
 36 37  1  0  0  0
 36131  1  0  0  0
 36132  1  0  0  0
 37 38  1  0  0  0
 37133  1  0  0  0
 37134  1  0  0  0
 38 39  1  0  0  0
 39 40  1  0  0  0
 39135  1  0  0  0
 39136  1  0  0  0
 40 41  1  0  0  0
 40137  1  0  0  0
 40138  1  0  0  0
 41 42  1  0  0  0
 42 43  1  0  0  0
 42139  1  0  0  0
 42140  1  0  0  0
 43 44  1  0  0  0
 43141  1  0  0  0
 43142  1  0  0  0
 44 45  1  0  0  0
 45 46  1  0  0  0
 45143  1  0  0  0
 45144  1  0  0  0
 46 47  1  0  0  0
 46145  1  0  0  0
 46146  1  0  0  0
 47 48  1  0  0  0
 48 49  1  0  0  0
 48147  1  0  0  0
 48148  1  0  0  0
 49 50  1  0  0  0
 49149  1  0  0  0
 49150  1  0  0  0
 50 51  1  0  0  0
 51 52  1  0  0  0
 51151  1  0  0  0
 51152  1  0  0  0
 52 53  1  0  0  0
 52153  1  0  0  0
 52154  1  0  0  0
 53 54  1  0  0  0
 54 55  1  0  0  0
 54155  1  0  0  0
 54156  1  0  0  0
 55 56  1  0  0  0
 55157  1  0  0  0
 55158  1  0  0  0
 56 57  1  0  0  0
 57 58  1  0  0  0
 57159  1  0  0  0
 57160  1  0  0  0
 58 59  1  0  0  0
 58161  1  0  0  0
 58162  1  0  0  0
 59 60  1  0  0  0
 60 61  1  0  0  0
 60163  1  0  0  0
 60164  1  0  0  0
 61 62  1  0  0  0
 61165  1  0  0  0
 61166  1  0  0  0
 62 63  1  0  0  0
 63 64  1  0  0  0
 63167  1  0  0  0
 63168  1  0  0  0
 64 65  1  0  0  0
 64169  1  0  0  0
 64170  1  0  0  0
 65 66  1  0  0  0
 66 67  1  0  0  0
 66171  1  0  0  0
 66172  1  0  0  0
 67 68  1  0  0  0
 67173  1  0  0  0
 67174  1  0  0  0
 68 69  1  0  0  0
 69 70  1  0  0  0
 69175  1  0  0  0
 69176  1  0  0  0
 70 71  1  0  0  0
 70177  1  0  0  0
 70178  1  0  0  0
 71 72  1  0  0  0
 72 73  1  0  0  0
 72179  1  0  0  0
 72180  1  0  0  0
 73 74  1  0  0  0
 73181  1  0  0  0
 73182  1  0  0  0
 74 75  1  0  0  0
 75 76  1  0  0  0
 75183  1  0  0  0
 75184  1  0  0  0
 76 77  1  0  0  0
 76185  1  0  0  0
 76186  1  0  0  0
 77 78  1  0  0  0
 78 79  1  0  0  0
 78187  1  0  0  0
 78188  1  0  0  0
 79 80  1  0  0  0
 79189  1  0  0  0
 79190  1  0  0  0
 80 81  1  0  0  0
 81 82  1  0  0  0
 81191  1  0  0  0
 81192  1  0  0  0
 82 83  1  0  0  0
 82193  1  0  0  0
 82194  1  0  0  0
 83195  1  0  0  0
M  END
$$$$
