PFA
  CCTOOLS-0919241032

 48 50  0  0  0  0  0  0  0  0999 V2000
   -1.8450   -0.7560   -3.2690 O   0  0  0  0  0
   -1.0410   -0.2840   -4.0490 C   0  0  0  0  0
   -1.4000   -0.0820   -5.3310 N   0  0  0  0  0
   -0.5160    0.4400   -6.2060 C   0  0  0  0  0
   -0.8320    0.6190   -7.3680 O   0  0  0  0  0
    0.1900    0.0390   -3.6160 N   0  0  0  0  0
    1.1380    0.5830   -4.4900 N   0  0  0  0  0
    0.8280    0.7880   -5.7410 C   0  0  0  0  0
    0.5300   -0.1770   -2.2750 C   0  0  0  0  0
    1.2980    0.7570   -1.5930 C   0  0  0  0  0
    1.6320    0.5430   -0.2710 C   0  0  0  0  0
    2.4650    1.5580    0.4680 C   0  0  0  0  0
    0.0990   -1.3270   -1.6260 C   0  0  0  0  0
    0.4390   -1.5430   -0.3060 C   0  0  0  0  0
   -0.0280   -2.7900    0.3980 C   0  0  0  0  0
    1.2020   -0.6050    0.3760 C   0  0  0  0  0
    1.5320   -0.8160    1.6770 O   0  0  0  0  0
    0.5440   -0.2600    2.4280 C   0  0  0  0  0
   -0.5280    0.3650    1.8100 C   0  0  0  0  0
    0.6090   -0.3190    3.8130 C   0  0  0  0  0
   -0.3940    0.2450    4.5750 C   0  0  0  0  0
   -0.3240    0.1810    6.0790 C   0  0  0  0  0
   -0.2980   -1.2810    6.5270 C   0  0  0  0  0
    0.9460    0.8840    6.5610 C   0  0  0  0  0
   -1.4690    0.8650    3.9570 C   0  0  0  0  0
   -1.5310    0.9290    2.5730 C   0  0  0  0  0
   -2.4570    1.4210    4.7080 O   0  0  0  0  0
   -2.2940   -0.3170   -5.6260 H   0  0  0  0  0
    1.5510    1.2080   -6.4230 H   0  0  0  0  0
    1.6330    1.6520   -2.0970 H   0  0  0  0  0
    3.5210    1.3160    0.3510 H   0  0  0  0  0
    2.2730    2.5510    0.0620 H   0  0  0  0  0
    2.2040    1.5410    1.5260 H   0  0  0  0  0
   -0.4970   -2.0550   -2.1560 H   0  0  0  0  0
    0.7120   -3.5800    0.2680 H   0  0  0  0  0
   -0.1540   -2.5820    1.4600 H   0  0  0  0  0
   -0.9790   -3.1120   -0.0250 H   0  0  0  0  0
   -0.5780    0.4120    0.7320 H   0  0  0  0  0
    1.4440   -0.8060    4.2940 H   0  0  0  0  0
   -1.1970    0.6750    6.5050 H   0  0  0  0  0
   -0.2470   -1.3280    7.6150 H   0  0  0  0  0
   -1.2030   -1.7830    6.1840 H   0  0  0  0  0
    0.5740   -1.7760    6.1010 H   0  0  0  0  0
    1.8190    0.3890    6.1350 H   0  0  0  0  0
    0.9270    1.9260    6.2420 H   0  0  0  0  0
    0.9960    0.8380    7.6490 H   0  0  0  0  0
   -2.3660    1.4170    2.0920 H   0  0  0  0  0
   -3.1230    0.7330    4.8460 H   0  0  0  0  0
  1  2  2  0  0  0
  2  3  1  0  0  0
  2  6  1  0  0  0
  3  4  1  0  0  0
  3 28  1  0  0  0
  4  5  2  0  0  0
  4  8  1  0  0  0
  6  7  1  0  0  0
  6  9  1  0  0  0
  7  8  2  0  0  0
  8 29  1  0  0  0
  9 10  2  0  0  0
  9 13  1  0  0  0
 10 11  1  0  0  0
 10 30  1  0  0  0
 11 12  1  0  0  0
 11 16  2  0  0  0
 12 31  1  0  0  0
 12 32  1  0  0  0
 12 33  1  0  0  0
 13 14  2  0  0  0
 13 34  1  0  0  0
 14 15  1  0  0  0
 14 16  1  0  0  0
 15 35  1  0  0  0
 15 36  1  0  0  0
 15 37  1  0  0  0
 16 17  1  0  0  0
 17 18  1  0  0  0
 18 19  2  0  0  0
 18 20  1  0  0  0
 19 26  1  0  0  0
 19 38  1  0  0  0
 20 21  2  0  0  0
 20 39  1  0  0  0
 21 22  1  0  0  0
 21 25  1  0  0  0
 22 23  1  0  0  0
 22 24  1  0  0  0
 22 40  1  0  0  0
 23 41  1  0  0  0
 23 42  1  0  0  0
 23 43  1  0  0  0
 24 44  1  0  0  0
 24 45  1  0  0  0
 24 46  1  0  0  0
 25 26  2  0  0  0
 25 27  1  0  0  0
 26 47  1  0  0  0
 27 48  1  0  0  0
M  END
$$$$
