PFB
  CCTOOLS-0919241032

 16 16  0  0  0  0  0  0  0  0999 V2000
    0.0000    0.2310    1.1260 C   0  0  0  0  0
   -1.1980    0.1570    0.4380 C   0  0  0  0  0
   -1.2000    0.0090   -0.9390 C   0  0  0  0  0
   -0.0000   -0.0660   -1.6280 C   0  0  0  0  0
    1.1990    0.0070   -0.9390 C   0  0  0  0  0
    1.1990    0.1620    0.4370 C   0  0  0  0  0
    0.0000    0.3930    2.6240 C   0  0  0  0  0
   -2.3680    0.2310    1.1110 F   0  0  0  0  0
   -2.3700   -0.0620   -1.6100 F   0  0  0  0  0
   -0.0000   -0.2100   -2.9710 F   0  0  0  0  0
    2.3690   -0.0650   -1.6100 F   0  0  0  0  0
    2.3680    0.2330    1.1090 F   0  0  0  0  0
    0.0000   -0.8940    3.2430 O   0  0  0  0  0
   -0.8890    0.9440    2.9300 H   0  0  0  0  0
    0.8910    0.9430    2.9300 H   0  0  0  0  0
    0.0000   -0.7450    4.1980 H   0  0  0  0  0
  1  2  2  0  0  0
  1  6  1  0  0  0
  1  7  1  0  0  0
  2  3  1  0  0  0
  2  8  1  0  0  0
  3  4  2  0  0  0
  3  9  1  0  0  0
  4  5  1  0  0  0
  4 10  1  0  0  0
  5  6  2  0  0  0
  5 11  1  0  0  0
  6 12  1  0  0  0
  7 13  1  0  0  0
  7 14  1  0  0  0
  7 15  1  0  0  0
 13 16  1  0  0  0
M  END
$$$$
