PFF
  CCTOOLS-1004241120

 23 23  0  0  1  0  0  0  0  0999 V2000
   -0.0400   -1.2100    0.0530 N   0  0  0  0  0
    1.1720   -1.7090    0.6520 C   0  0  0  0  0
    1.0830   -3.2070    0.9050 C   0  0  0  0  0
    0.0400   -3.7700    1.2220 O   0  0  0  0  0
    2.2470   -3.8820    0.7440 O   0  0  0  0  0
    1.4840   -0.9750    1.9620 C   0  0  0  0  0
    2.9400   -1.0600    2.3530 C   0  0  0  0  0
    3.3690   -2.1090    3.1490 C   0  0  0  0  0
    3.8200   -0.0860    1.9070 C   0  0  0  0  0
    4.7150   -2.1880    3.5100 C   0  0  0  0  0
    5.1660   -0.1650    2.2680 C   0  0  0  0  0
    5.6130   -1.2160    3.0690 C   0  0  0  0  0
    6.9040   -1.2910    3.4150 F   0  0  0  0  0
   -0.1020   -1.1550   -0.9500 H   0  0  0  0  0
   -0.7150   -0.7410    0.6340 H   0  0  0  0  0
    1.9650   -1.5580   -0.0890 H   0  0  0  0  0
    2.1880   -4.8480    0.9010 H   0  0  0  0  0
    1.2150    0.0870    1.8790 H   0  0  0  0  0
    0.8590   -1.3680    2.7750 H   0  0  0  0  0
    2.6770   -2.8710    3.4970 H   0  0  0  0  0
    3.4810    0.7360    1.2830 H   0  0  0  0  0
    5.0630   -3.0060    4.1340 H   0  0  0  0  0
    5.8650    0.5920    1.9250 H   0  0  0  0  0
  1  2  1  0  0  0
  1 14  1  0  0  0
  1 15  1  0  0  0
  2  3  1  0  0  0
  2  6  1  0  0  0
  2 16  1  0  0  0
  3  4  2  0  0  0
  3  5  1  0  0  0
  5 17  1  0  0  0
  6  7  1  0  0  0
  6 18  1  0  0  0
  6 19  1  0  0  0
  7  8  2  0  0  0
  7  9  1  0  0  0
  8 10  1  0  0  0
  8 20  1  0  0  0
  9 11  2  0  0  0
  9 21  1  0  0  0
 10 12  2  0  0  0
 10 22  1  0  0  0
 11 12  1  0  0  0
 11 23  1  0  0  0
 12 13  1  0  0  0
M  END
$$$$
