PFU
  CCTOOLS-0919241032

 36 37  0  0  1  0  0  0  0  0999 V2000
    4.6130   -1.1520   -0.1600 P   0  0  0  0  0
   -2.0000    0.1040   -0.0130 C   0  0  0  0  0
   -3.1030   -1.2390    1.2320 N   0  0  0  0  0
   -3.7110    0.5730   -1.7380 O   0  0  0  0  0
   -3.2650   -0.0250   -0.6040 C   0  0  0  0  0
   -1.9800   -0.6410    1.0610 N   0  0  0  0  0
   -6.0000   -0.9780   -0.9060 O   0  0  0  0  0
   -3.9650   -0.8990    0.2210 C   0  0  0  0  0
   -5.8880   -2.2160    0.9350 N   0  0  0  0  0
   -5.3450   -1.3630    0.0440 C   0  0  0  0  0
   -0.8630    0.9480   -0.5280 C   0  0  0  0  0
    5.6470   -0.2690    0.4240 O   0  0  0  0  0
   -0.7180    2.2160    0.3360 C   0  0  0  0  0
   -0.8940    3.3880   -0.4630 O   0  0  0  0  0
    5.1710   -1.8040   -1.5220 O   0  0  0  0  0
    0.7290    2.1420    0.8780 C   0  0  0  0  0
    1.3500    3.4290    0.8530 O   0  0  0  0  0
    4.2520   -2.3210    0.8860 O   0  0  0  0  0
    1.4070    1.1820   -0.1320 C   0  0  0  0  0
    0.3720    0.2190   -0.4270 O   0  0  0  0  0
    2.6180    0.4970    0.5040 C   0  0  0  0  0
    3.2910   -0.2910   -0.4800 O   0  0  0  0  0
   -3.5480    0.0630   -2.5430 H   0  0  0  0  0
   -6.8000   -2.5240    0.8180 H   0  0  0  0  0
   -5.3660   -2.5240    1.6930 H   0  0  0  0  0
   -1.0480    1.2260   -1.5660 H   0  0  0  0  0
   -1.4350    2.2020    1.1570 H   0  0  0  0  0
   -0.8130    4.2160    0.0310 H   0  0  0  0  0
    5.9690   -2.3380   -1.4040 H   0  0  0  0  0
    0.7470    1.7240    1.8850 H   0  0  0  0  0
    0.9060    4.0910    1.4020 H   0  0  0  0  0
    3.5790   -2.9390    0.5690 H   0  0  0  0  0
    1.7000    1.7190   -1.0340 H   0  0  0  0  0
    3.3000    1.2540    0.8920 H   0  0  0  0  0
    2.2860   -0.1450    1.3190 H   0  0  0  0  0
   -3.3110   -1.8390    1.9650 H   0  0  0  0  0
  1 22  1  0  0  0
  1 18  1  0  0  0
  2 11  1  0  0  0
  3  8  1  0  0  0
  3  6  1  0  0  0
  3 36  1  0  0  0
  4 23  1  0  0  0
  5  2  1  0  0  0
  5  4  1  0  0  0
  6  2  2  0  0  0
  8  5  2  0  0  0
  9 10  1  0  0  0
  9 24  1  0  0  0
  9 25  1  0  0  0
 10  7  2  0  0  0
 10  8  1  0  0  0
 11 13  1  0  0  0
 11 26  1  0  0  0
 12  1  2  0  0  0
 13 16  1  0  0  0
 13 14  1  0  0  0
 13 27  1  0  0  0
 14 28  1  0  0  0
 15  1  1  0  0  0
 15 29  1  0  0  0
 16 17  1  0  0  0
 16 30  1  0  0  0
 17 31  1  0  0  0
 18 32  1  0  0  0
 19 16  1  0  0  0
 19 33  1  0  0  0
 20 11  1  0  0  0
 20 19  1  0  0  0
 21 19  1  0  0  0
 21 22  1  0  0  0
 21 34  1  0  0  0
 21 35  1  0  0  0
M  END
$$$$
