PGD
  CCTOOLS-0919241032

 71 76  0  0  1  0  0  0  0  0999 V2000
   -0.4560    1.3300   -1.0100 P   0  0  0  0  0
    0.0500    2.6200   -0.4900 O   0  0  0  0  0
   -2.0260    1.4640   -1.3400 O   0  0  0  0  0
   -0.2370    0.1820    0.0960 O   0  0  0  0  0
   -0.8840   -0.4740    2.5590 O   0  0  0  0  0
   -1.0600    0.6340    1.4040 P   0  0  0  0  0
   -2.4940    0.7680    1.0630 O   0  0  0  0  0
   -0.4980    2.0490    1.9290 O   0  0  0  0  0
    0.3430    0.9410   -2.3520 O   0  0  0  0  0
    0.1100    1.9920   -3.2910 C   0  0  0  0  0
    0.8460    1.6830   -4.5960 C   0  0  0  0  0
    0.3500    0.4560   -5.1740 O   0  0  0  0  0
    0.5480    2.7670   -5.6550 C   0  0  0  0  0
    1.6070    3.7250   -5.7040 O   0  0  0  0  0
    0.4650    1.9820   -6.9850 C   0  0  0  0  0
    1.4690    2.4320   -7.8960 O   0  0  0  0  0
    0.7200    0.5160   -6.5690 C   0  0  0  0  0
   -0.1170   -0.3900   -7.3580 N   0  0  0  0  0
   -1.3840   -0.7910   -7.0510 C   0  0  0  0  0
   -1.8270   -1.5970   -7.9710 N   0  0  0  0  0
   -0.8740   -1.7610   -8.9200 C   0  0  0  0  0
   -0.7980   -2.5040  -10.1220 C   0  0  0  0  0
   -1.7360   -3.1890  -10.4930 O   0  0  0  0  0
    0.3370   -2.4320  -10.8500 N   0  0  0  0  0
    1.3810   -1.6670  -10.4230 C   0  0  0  0  0
    2.5240   -1.6170  -11.1800 N   0  0  0  0  0
    1.3230   -0.9730   -9.3080 N   0  0  0  0  0
    0.2290   -0.9910   -8.5380 C   0  0  0  0  0
   -1.6330   -0.0180    3.6870 C   0  0  0  0  0
   -1.5080   -1.0320    4.8260 C   0  0  0  0  0
   -0.1340   -1.1760    5.1770 O   0  0  0  0  0
   -2.3090   -0.5540    6.0030 C   0  0  0  0  0
   -3.8580    0.2330    5.7130 S   0  0  0  0  0
   -1.8870   -0.6980    7.2500 C   0  0  0  0  0
   -2.8780   -0.1110    8.5830 S   0  0  0  0  0
   -0.5670   -1.3650    7.5410 C   0  0  0  0  0
    0.3990   -0.3570    7.9860 N   0  0  0  0  0
    1.6580   -0.4550    7.7460 C   0  0  0  0  0
    2.6470    0.5520    8.2220 C   0  0  0  0  0
    2.3030    1.5310    8.8600 O   0  0  0  0  0
    3.9330    0.3320    7.9160 N   0  0  0  0  0
    4.3150   -0.7230    7.2220 C   0  0  0  0  0
    5.6550   -0.8670    6.9670 N   0  0  0  0  0
    3.4900   -1.6610    6.7500 N   0  0  0  0  0
    2.1960   -1.5960    6.9570 C   0  0  0  0  0
    1.3140   -2.5230    6.4780 N   0  0  0  0  0
   -0.0750   -2.0780    6.2820 C   0  0  0  0  0
   -2.3160    0.6050   -1.6750 H   0  0  0  0  0
    0.4360    1.9170    2.1400 H   0  0  0  0  0
    0.4770    2.9330   -2.8810 H   0  0  0  0  0
   -0.9580    2.0740   -3.4880 H   0  0  0  0  0
    1.9190    1.6120   -4.4180 H   0  0  0  0  0
   -0.4000    3.2590   -5.4410 H   0  0  0  0  0
    1.3660    4.3740   -6.3790 H   0  0  0  0  0
   -0.5250    2.0850   -7.4280 H   0  0  0  0  0
    1.2900    3.3670   -8.0690 H   0  0  0  0  0
    1.7730    0.2640   -6.6940 H   0  0  0  0  0
   -1.9370   -0.4850   -6.1750 H   0  0  0  0  0
    0.4120   -2.9320  -11.6780 H   0  0  0  0  0
    3.2740   -1.0750  -10.8910 H   0  0  0  0  0
    2.5840   -2.1280  -12.0030 H   0  0  0  0  0
   -1.2450    0.9460    4.0150 H   0  0  0  0  0
   -2.6820    0.0870    3.4080 H   0  0  0  0  0
   -1.8960   -1.9940    4.4940 H   0  0  0  0  0
   -4.6850   -0.8160    5.8590 H   0  0  0  0  0
   -3.8610    0.4950    7.8950 H   0  0  0  0  0
   -0.7040   -2.1040    8.3290 H   0  0  0  0  0
    6.2840   -0.2050    7.2930 H   0  0  0  0  0
    5.9730   -1.6300    6.4600 H   0  0  0  0  0
    1.5900   -3.4300    6.2770 H   0  0  0  0  0
   -0.7090   -2.9420    6.0810 H   0  0  0  0  0
  1  2  2  0  0  0
  1  3  1  0  0  0
  1  4  1  0  0  0
  1  9  1  0  0  0
  3 48  1  0  0  0
  4  6  1  0  0  0
  5  6  1  0  0  0
  5 29  1  0  0  0
  6  7  2  0  0  0
  6  8  1  0  0  0
  8 49  1  0  0  0
  9 10  1  0  0  0
 10 11  1  0  0  0
 10 50  1  0  0  0
 10 51  1  0  0  0
 11 12  1  0  0  0
 11 13  1  0  0  0
 11 52  1  0  0  0
 12 17  1  0  0  0
 13 14  1  0  0  0
 13 15  1  0  0  0
 13 53  1  0  0  0
 14 54  1  0  0  0
 15 16  1  0  0  0
 15 17  1  0  0  0
 15 55  1  0  0  0
 16 56  1  0  0  0
 17 18  1  0  0  0
 17 57  1  0  0  0
 18 19  1  0  0  0
 18 28  1  0  0  0
 19 20  2  0  0  0
 19 58  1  0  0  0
 20 21  1  0  0  0
 21 22  1  0  0  0
 21 28  2  0  0  0
 22 23  2  0  0  0
 22 24  1  0  0  0
 24 25  1  0  0  0
 24 59  1  0  0  0
 25 26  1  0  0  0
 25 27  2  0  0  0
 26 60  1  0  0  0
 26 61  1  0  0  0
 27 28  1  0  0  0
 29 30  1  0  0  0
 29 62  1  0  0  0
 29 63  1  0  0  0
 30 31  1  0  0  0
 30 32  1  0  0  0
 30 64  1  0  0  0
 31 47  1  0  0  0
 32 33  1  0  0  0
 32 34  2  0  0  0
 33 65  1  0  0  0
 34 35  1  0  0  0
 34 36  1  0  0  0
 35 66  1  0  0  0
 36 37  1  0  0  0
 36 47  1  0  0  0
 36 67  1  0  0  0
 37 38  2  0  0  0
 38 39  1  0  0  0
 38 45  1  0  0  0
 39 40  2  0  0  0
 39 41  1  0  0  0
 41 42  2  0  0  0
 42 43  1  0  0  0
 42 44  1  0  0  0
 43 68  1  0  0  0
 43 69  1  0  0  0
 44 45  2  0  0  0
 45 46  1  0  0  0
 46 47  1  0  0  0
 46 70  1  0  0  0
 47 71  1  0  0  0
M  END
$$$$
