PGO
  CCTOOLS-0919241032

 13 12  0  0  1  0  0  0  0  0999 V2000
    0.9090   -0.1450   -0.7040 C   0  0  0  0  0
   -0.6000   -0.0100   -0.4940 C   0  0  0  0  0
   -0.9010    1.3200    0.1990 C   0  0  0  0  0
    1.5810    0.0100    0.5480 O   0  0  0  0  0
   -1.0660   -1.0880    0.3210 O   0  0  0  0  0
    1.1320   -1.1300   -1.1160 H   0  0  0  0  0
    1.2500    0.6240   -1.3970 H   0  0  0  0  0
   -1.1060   -0.0400   -1.4590 H   0  0  0  0  0
   -0.5460    2.1420   -0.4230 H   0  0  0  0  0
   -1.9770    1.4160    0.3490 H   0  0  0  0  0
   -0.3960    1.3500    1.1640 H   0  0  0  0  0
    2.5430   -0.0640    0.4900 H   0  0  0  0  0
   -2.0170   -1.0660    0.4960 H   0  0  0  0  0
  1  2  1  0  0  0
  1  4  1  0  0  0
  1  6  1  0  0  0
  1  7  1  0  0  0
  2  3  1  0  0  0
  2  5  1  0  0  0
  2  8  1  0  0  0
  3  9  1  0  0  0
  3 10  1  0  0  0
  3 11  1  0  0  0
  4 12  1  0  0  0
  5 13  1  0  0  0
M  END
$$$$
