PHA
  CCTOOLS-1004241120

 22 22  0  0  1  0  0  0  0  0999 V2000
    1.0840    0.7920    1.5230 N   0  0  0  0  0
   -0.3130    0.3580    1.6410 C   0  0  0  0  0
   -0.5950   -0.0440    3.0660 C   0  0  0  0  0
    0.2780    0.0220    3.8960 O   0  0  0  0  0
   -0.5570   -0.8340    0.7150 C   0  0  0  0  0
   -0.2750   -0.4310   -0.7080 C   0  0  0  0  0
    0.9950   -0.5810   -1.2300 C   0  0  0  0  0
   -1.2890    0.0840   -1.4940 C   0  0  0  0  0
    1.2540   -0.2110   -2.5370 C   0  0  0  0  0
   -1.0290    0.4580   -2.7990 C   0  0  0  0  0
    0.2410    0.3080   -3.3210 C   0  0  0  0  0
    1.2560    0.9520    0.5420 H   0  0  0  0  0
    1.6560    0.0050    1.7930 H   0  0  0  0  0
   -0.9730    1.1790    1.3580 H   0  0  0  0  0
   -1.5790   -0.3930    3.3430 H   0  0  0  0  0
    0.1020   -1.6540    0.9980 H   0  0  0  0  0
   -1.5950   -1.1560    0.8030 H   0  0  0  0  0
    1.7860   -0.9870   -0.6170 H   0  0  0  0  0
   -2.2820    0.2000   -1.0870 H   0  0  0  0  0
    2.2470   -0.3270   -2.9440 H   0  0  0  0  0
   -1.8200    0.8640   -3.4120 H   0  0  0  0  0
    0.4430    0.5980   -4.3420 H   0  0  0  0  0
  1  2  1  0  0  0
  1 12  1  0  0  0
  1 13  1  0  0  0
  2  3  1  0  0  0
  2  5  1  0  0  0
  2 14  1  0  0  0
  3  4  2  0  0  0
  3 15  1  0  0  0
  5  6  1  0  0  0
  5 16  1  0  0  0
  5 17  1  0  0  0
  6  7  2  0  0  0
  6  8  1  0  0  0
  7  9  1  0  0  0
  7 18  1  0  0  0
  8 10  2  0  0  0
  8 19  1  0  0  0
  9 11  2  0  0  0
  9 20  1  0  0  0
 10 11  1  0  0  0
 10 21  1  0  0  0
 11 22  1  0  0  0
M  END
$$$$
