PHK
  CCTOOLS-1004241120

 27 27  0  0  1  0  0  0  0  0999 V2000
   -0.6000   -0.0210   -0.9980 C   0  0  0  0  0
   -2.0120   -0.0910   -0.4770 C   0  0  0  0  0
   -2.6830    1.0700   -0.1390 C   0  0  0  0  0
   -2.6390   -1.3160   -0.3420 C   0  0  0  0  0
   -3.9780    1.0050    0.3380 C   0  0  0  0  0
   -3.9330   -1.3800    0.1400 C   0  0  0  0  0
   -4.6030   -0.2200    0.4780 C   0  0  0  0  0
    2.0800    1.0220   -1.1280 O   0  0  0  0  0
    2.7930   -0.2320    0.8100 C   0  0  0  0  0
    4.4690   -0.4450    0.1790 CL  0  0  0  0  0
    1.8130   -0.1540   -0.3620 C   0  0  0  0  0
    0.2210    1.0870    1.0260 N   0  0  0  0  0
    0.3810   -0.1000    0.1740 C   0  0  0  0  0
   -0.4550    0.9190   -1.5310 H   0  0  0  0  0
   -0.4210   -0.8550   -1.6770 H   0  0  0  0  0
   -2.1940    2.0270   -0.2490 H   0  0  0  0  0
   -2.1160   -2.2230   -0.6070 H   0  0  0  0  0
   -4.5020    1.9120    0.6030 H   0  0  0  0  0
   -4.4220   -2.3370    0.2490 H   0  0  0  0  0
   -5.6150   -0.2700    0.8520 H   0  0  0  0  0
    1.9640    1.7760   -0.5340 H   0  0  0  0  0
    2.7380    0.6880    1.3920 H   0  0  0  0  0
    2.5340   -1.0800    1.4450 H   0  0  0  0  0
    1.9310   -1.0340   -0.9940 H   0  0  0  0  0
    0.9520    1.0450    1.7210 H   0  0  0  0  0
    0.4180    1.8890    0.4460 H   0  0  0  0  0
    0.1770   -0.9970    0.7590 H   0  0  0  0  0
  1  2  1  0  0  0
  1 13  1  0  0  0
  1 14  1  0  0  0
  1 15  1  0  0  0
  2  3  2  0  0  0
  2  4  1  0  0  0
  3  5  1  0  0  0
  3 16  1  0  0  0
  4  6  2  0  0  0
  4 17  1  0  0  0
  5  7  2  0  0  0
  5 18  1  0  0  0
  6  7  1  0  0  0
  6 19  1  0  0  0
  7 20  1  0  0  0
  8 11  1  0  0  0
  8 21  1  0  0  0
  9 10  1  0  0  0
  9 11  1  0  0  0
  9 22  1  0  0  0
  9 23  1  0  0  0
 11 13  1  0  0  0
 11 24  1  0  0  0
 12 13  1  0  0  0
 12 25  1  0  0  0
 12 26  1  0  0  0
 13 27  1  0  0  0
M  END
$$$$
