PIA
  CCTOOLS-1004241120

 36 37  0  0  1  0  0  0  0  0999 V2000
   -0.8720   -3.0260   -1.1940 N   0  0  0  0  0
   -1.8280   -2.1510   -0.5040 C   0  0  0  0  0
   -2.0170   -2.6350    0.9350 C   0  0  0  0  0
   -1.3010   -0.7390   -0.4940 C   0  0  0  0  0
   -0.0460   -0.4280   -0.3910 N   0  0  0  0  0
   -2.0820    0.3770   -0.5980 N   0  0  0  0  0
   -1.2810    1.4640   -0.5540 C   0  0  0  0  0
   -1.6170    2.6330   -0.6180 O   0  0  0  0  0
    0.0860    0.9330   -0.4150 C   0  0  0  0  0
   -3.5410    0.3920   -0.7350 C   0  0  0  0  0
   -4.1730    0.4360    0.6320 C   0  0  0  0  0
   -3.4770    0.4540    1.6200 O   0  0  0  0  0
    1.2550    1.6560   -0.3300 C   0  0  0  0  0
    2.5250    0.9690   -0.0840 C   0  0  0  0  0
    2.5750   -0.4320   -0.0600 C   0  0  0  0  0
    3.6980    1.7100    0.1220 C   0  0  0  0  0
    3.7670   -1.0690    0.1700 C   0  0  0  0  0
    4.8840    1.0620    0.3510 C   0  0  0  0  0
    4.9250   -0.3280    0.3790 C   0  0  0  0  0
    6.1020   -0.9650    0.6070 O   0  0  0  0  0
   -5.5100    0.4570    0.7530 O   0  0  0  0  0
    0.0420   -2.9700   -0.7690 H   0  0  0  0  0
   -1.2030   -3.9790   -1.2140 H   0  0  0  0  0
   -2.7860   -2.1770   -1.0240 H   0  0  0  0  0
   -1.0590   -2.6080    1.4560 H   0  0  0  0  0
   -2.7270   -1.9850    1.4470 H   0  0  0  0  0
   -2.3980   -3.6560    0.9280 H   0  0  0  0  0
   -3.8430    1.2710   -1.3040 H   0  0  0  0  0
   -3.8660   -0.5080   -1.2570 H   0  0  0  0  0
    1.2350    2.7300   -0.4450 H   0  0  0  0  0
    1.6760   -1.0080   -0.2220 H   0  0  0  0  0
    3.6670    2.7900    0.1000 H   0  0  0  0  0
    3.8060   -2.1480    0.1890 H   0  0  0  0  0
    5.7880    1.6310    0.5100 H   0  0  0  0  0
    6.6060   -1.1590   -0.1960 H   0  0  0  0  0
   -5.8690    0.4850    1.6510 H   0  0  0  0  0
  1  2  1  0  0  0
  1 22  1  0  0  0
  1 23  1  0  0  0
  2  3  1  0  0  0
  2  4  1  0  0  0
  2 24  1  0  0  0
  3 25  1  0  0  0
  3 26  1  0  0  0
  3 27  1  0  0  0
  4  5  2  0  0  0
  4  6  1  0  0  0
  5  9  1  0  0  0
  6  7  1  0  0  0
  6 10  1  0  0  0
  7  8  2  0  0  0
  7  9  1  0  0  0
  9 13  2  0  0  0
 10 11  1  0  0  0
 10 28  1  0  0  0
 10 29  1  0  0  0
 11 12  2  0  0  0
 11 21  1  0  0  0
 13 14  1  0  0  0
 13 30  1  0  0  0
 14 15  2  0  0  0
 14 16  1  0  0  0
 15 17  1  0  0  0
 15 31  1  0  0  0
 16 18  2  0  0  0
 16 32  1  0  0  0
 17 19  2  0  0  0
 17 33  1  0  0  0
 18 19  1  0  0  0
 18 34  1  0  0  0
 19 20  1  0  0  0
 20 35  1  0  0  0
 21 36  1  0  0  0
M  END
$$$$
