PII
  CCTOOLS-0919241032

137137  0  0  1  0  0  0  0  0999 V2000
   -6.7120    0.2880    0.9520 O   0  0  0  0  0
   -5.9760   -1.1400    1.0380 P   0  0  0  0  0
   -5.8530   -1.5880    2.5800 O   0  0  0  0  0
   -6.7650   -2.1470    0.2930 O   0  0  0  0  0
   -4.5050   -1.0270    0.3930 O   0  0  0  0  0
   -3.9070   -2.3200    0.4990 C   0  0  0  0  0
   -2.4990   -2.2810   -0.0980 C   0  0  0  0  0
   -1.6930   -1.3140    0.6240 O   0  0  0  0  0
   -2.5820   -1.8770   -1.5710 C   0  0  0  0  0
   -1.2460   -1.8400   -2.1390 O   0  0  0  0  0
   -0.9830   -1.6990    1.6960 C   0  0  0  0  0
   -1.0160   -2.8510    2.0600 O   0  0  0  0  0
   -1.0740   -1.5070   -3.4280 C   0  0  0  0  0
   -2.0300   -1.2390   -4.1160 O   0  0  0  0  0
   -0.1460   -0.6950    2.4460 C   0  0  0  0  0
    0.5540   -1.3880    3.6160 C   0  0  0  0  0
    0.3120   -1.4690   -4.0170 C   0  0  0  0  0
    0.2290   -1.0650   -5.4900 C   0  0  0  0  0
    1.4040   -0.3690    4.3780 C   0  0  0  0  0
    2.1050   -1.0620    5.5480 C   0  0  0  0  0
    2.9550   -0.0430    6.3090 C   0  0  0  0  0
    3.6560   -0.7360    7.4790 C   0  0  0  0  0
    4.5050    0.2820    8.2410 C   0  0  0  0  0
    5.2060   -0.4100    9.4110 C   0  0  0  0  0
    6.0560    0.6080   10.1720 C   0  0  0  0  0
    6.7570   -0.0840   11.3420 C   0  0  0  0  0
    7.6070    0.9350   12.1040 C   0  0  0  0  0
    8.3080    0.2410   13.2740 C   0  0  0  0  0
    9.1580    1.2610   14.0350 C   0  0  0  0  0
    9.8590    0.5680   15.2050 C   0  0  0  0  0
   10.7090    1.5870   15.9670 C   0  0  0  0  0
   11.4100    0.8940   17.1370 C   0  0  0  0  0
    1.6370   -1.0260   -6.0890 C   0  0  0  0  0
    1.5540   -0.6220   -7.5620 C   0  0  0  0  0
    2.9620   -0.5830   -8.1600 C   0  0  0  0  0
    2.8790   -0.1790   -9.6330 C   0  0  0  0  0
    4.2860   -0.1400  -10.2320 C   0  0  0  0  0
    4.2030    0.2640  -11.7050 C   0  0  0  0  0
    5.6110    0.3020  -12.3030 C   0  0  0  0  0
    5.5280    0.7070  -13.7760 C   0  0  0  0  0
    6.9360    0.7460  -14.3740 C   0  0  0  0  0
    6.8530    1.1500  -15.8480 C   0  0  0  0  0
    8.2610    1.1890  -16.4460 C   0  0  0  0  0
    8.1780    1.5930  -17.9190 C   0  0  0  0  0
    9.5860    1.6320  -18.5170 C   0  0  0  0  0
   -8.0050    0.1230    1.5370 C   0  0  0  0  0
   -8.1470    1.0660    2.7340 C   0  0  0  0  0
   -7.9800    2.5130    2.2660 C   0  0  0  0  0
   -9.0550    2.8410    1.2280 C   0  0  0  0  0
   -8.9130    1.8980    0.0310 C   0  0  0  0  0
   -9.0800    0.4510    0.4990 C   0  0  0  0  0
   -9.4410    0.9010    3.3190 O   0  0  0  0  0
   -8.1130    3.3940    3.3830 O   0  0  0  0  0
   -8.8990    4.1920    0.7910 O   0  0  0  0  0
   -9.9170    2.2040   -0.9380 O   0  0  0  0  0
   -8.9470   -0.4280   -0.6180 O   0  0  0  0  0
   -5.3330   -0.9070    3.0280 H   0  0  0  0  0
   -4.5120   -3.0460   -0.0420 H   0  0  0  0  0
   -3.8480   -2.6080    1.5490 H   0  0  0  0  0
   -2.0430   -3.2680   -0.0170 H   0  0  0  0  0
   -3.1880   -2.6030   -2.1140 H   0  0  0  0  0
   -3.0390   -0.8900   -1.6520 H   0  0  0  0  0
   -0.7870    0.1000    2.8260 H   0  0  0  0  0
    0.6000   -0.2710    1.7750 H   0  0  0  0  0
    1.1950   -2.1840    3.2360 H   0  0  0  0  0
   -0.1920   -1.8130    4.2870 H   0  0  0  0  0
    0.9170   -0.7430   -3.4750 H   0  0  0  0  0
    0.7690   -2.4560   -3.9360 H   0  0  0  0  0
   -0.3750   -1.7910   -6.0330 H   0  0  0  0  0
   -0.2270   -0.0780   -5.5710 H   0  0  0  0  0
    0.7630    0.4260    4.7580 H   0  0  0  0  0
    2.1500    0.0540    3.7070 H   0  0  0  0  0
    2.7460   -1.8580    5.1680 H   0  0  0  0  0
    1.3580   -1.4860    6.2190 H   0  0  0  0  0
    2.3140    0.7520    6.6890 H   0  0  0  0  0
    3.7010    0.3810    5.6380 H   0  0  0  0  0
    4.2960   -1.5320    7.0990 H   0  0  0  0  0
    2.9090   -1.1600    8.1500 H   0  0  0  0  0
    3.8650    1.0780    8.6210 H   0  0  0  0  0
    5.2520    0.7070    7.5700 H   0  0  0  0  0
    5.8470   -1.2050    9.0310 H   0  0  0  0  0
    4.4600   -0.8340   10.0820 H   0  0  0  0  0
    5.4150    1.4040   10.5530 H   0  0  0  0  0
    6.8030    1.0330    9.5010 H   0  0  0  0  0
    7.3980   -0.8790   10.9620 H   0  0  0  0  0
    6.0110   -0.5080   12.0140 H   0  0  0  0  0
    6.9660    1.7300   12.4840 H   0  0  0  0  0
    8.3540    1.3590   11.4330 H   0  0  0  0  0
    8.9490   -0.5530   12.8940 H   0  0  0  0  0
    7.5610   -0.1820   13.9450 H   0  0  0  0  0
    8.5170    2.0560   14.4160 H   0  0  0  0  0
    9.9050    1.6850   13.3640 H   0  0  0  0  0
   10.5000   -0.2270   14.8250 H   0  0  0  0  0
    9.1120    0.1430   15.8770 H   0  0  0  0  0
   10.0680    2.3820   16.3470 H   0  0  0  0  0
   11.4560    2.0110   15.2960 H   0  0  0  0  0
   12.0150    1.6200   17.6800 H   0  0  0  0  0
   10.6630    0.4690   17.8080 H   0  0  0  0  0
   12.0510    0.0980   16.7570 H   0  0  0  0  0
    2.2420   -0.3000   -5.5460 H   0  0  0  0  0
    2.0930   -2.0130   -6.0080 H   0  0  0  0  0
    0.9490   -1.3480   -8.1040 H   0  0  0  0  0
    1.0970    0.3640   -7.6430 H   0  0  0  0  0
    3.5670    0.1420   -7.6180 H   0  0  0  0  0
    3.4180   -1.5690   -8.0790 H   0  0  0  0  0
    2.2730   -0.9050  -10.1760 H   0  0  0  0  0
    2.4220    0.8070   -9.7140 H   0  0  0  0  0
    4.8920    0.5850   -9.6890 H   0  0  0  0  0
    4.7430   -1.1260  -10.1510 H   0  0  0  0  0
    3.5980   -0.4620  -12.2470 H   0  0  0  0  0
    3.7470    1.2500  -11.7860 H   0  0  0  0  0
    6.2170    1.0290  -11.7600 H   0  0  0  0  0
    6.0680   -0.6830  -12.2220 H   0  0  0  0  0
    4.9230   -0.0180  -14.3190 H   0  0  0  0  0
    5.0720    1.6930  -13.8570 H   0  0  0  0  0
    7.5410    1.4720  -13.8320 H   0  0  0  0  0
    7.3920   -0.2400  -14.2940 H   0  0  0  0  0
    6.2480    0.4240  -16.3900 H   0  0  0  0  0
    6.3970    2.1360  -15.9290 H   0  0  0  0  0
    8.8660    1.9150  -15.9030 H   0  0  0  0  0
    8.7170    0.2020  -16.3650 H   0  0  0  0  0
    7.5720    0.8670  -18.4620 H   0  0  0  0  0
    7.7210    2.5800  -18.0000 H   0  0  0  0  0
    9.5270    1.9200  -19.5670 H   0  0  0  0  0
   10.1910    2.3580  -17.9750 H   0  0  0  0  0
   10.0420    0.6450  -18.4360 H   0  0  0  0  0
   -8.1240   -0.9070    1.8700 H   0  0  0  0  0
   -7.3820    0.8330    3.4730 H   0  0  0  0  0
   -6.9940    2.6390    1.8190 H   0  0  0  0  0
  -10.0420    2.7150    1.6740 H   0  0  0  0  0
   -7.9270    2.0240   -0.4150 H   0  0  0  0  0
  -10.0670    0.3250    0.9450 H   0  0  0  0  0
   -9.4890    1.5110    4.0670 H   0  0  0  0  0
   -8.0020    4.2930    3.0460 H   0  0  0  0  0
   -9.5940    4.3570    0.1390 H   0  0  0  0  0
   -9.7760    3.1230   -1.2060 H   0  0  0  0  0
   -9.6420   -0.1890   -1.2470 H   0  0  0  0  0
  1  2  1  0  0  0
  1 46  1  0  0  0
  2  3  1  0  0  0
  2  4  2  0  0  0
  2  5  1  0  0  0
  3 57  1  0  0  0
  5  6  1  0  0  0
  6  7  1  0  0  0
  6 58  1  0  0  0
  6 59  1  0  0  0
  7  8  1  0  0  0
  7  9  1  0  0  0
  7 60  1  0  0  0
  8 11  1  0  0  0
  9 10  1  0  0  0
  9 61  1  0  0  0
  9 62  1  0  0  0
 10 13  1  0  0  0
 11 12  2  0  0  0
 11 15  1  0  0  0
 13 14  2  0  0  0
 13 17  1  0  0  0
 15 16  1  0  0  0
 15 63  1  0  0  0
 15 64  1  0  0  0
 16 19  1  0  0  0
 16 65  1  0  0  0
 16 66  1  0  0  0
 17 18  1  0  0  0
 17 67  1  0  0  0
 17 68  1  0  0  0
 18 33  1  0  0  0
 18 69  1  0  0  0
 18 70  1  0  0  0
 19 20  1  0  0  0
 19 71  1  0  0  0
 19 72  1  0  0  0
 20 21  1  0  0  0
 20 73  1  0  0  0
 20 74  1  0  0  0
 21 22  1  0  0  0
 21 75  1  0  0  0
 21 76  1  0  0  0
 22 23  1  0  0  0
 22 77  1  0  0  0
 22 78  1  0  0  0
 23 24  1  0  0  0
 23 79  1  0  0  0
 23 80  1  0  0  0
 24 25  1  0  0  0
 24 81  1  0  0  0
 24 82  1  0  0  0
 25 26  1  0  0  0
 25 83  1  0  0  0
 25 84  1  0  0  0
 26 27  1  0  0  0
 26 85  1  0  0  0
 26 86  1  0  0  0
 27 28  1  0  0  0
 27 87  1  0  0  0
 27 88  1  0  0  0
 28 29  1  0  0  0
 28 89  1  0  0  0
 28 90  1  0  0  0
 29 30  1  0  0  0
 29 91  1  0  0  0
 29 92  1  0  0  0
 30 31  1  0  0  0
 30 93  1  0  0  0
 30 94  1  0  0  0
 31 32  1  0  0  0
 31 95  1  0  0  0
 31 96  1  0  0  0
 32 97  1  0  0  0
 32 98  1  0  0  0
 32 99  1  0  0  0
 33 34  1  0  0  0
 33100  1  0  0  0
 33101  1  0  0  0
 34 35  1  0  0  0
 34102  1  0  0  0
 34103  1  0  0  0
 35 36  1  0  0  0
 35104  1  0  0  0
 35105  1  0  0  0
 36 37  1  0  0  0
 36106  1  0  0  0
 36107  1  0  0  0
 37 38  1  0  0  0
 37108  1  0  0  0
 37109  1  0  0  0
 38 39  1  0  0  0
 38110  1  0  0  0
 38111  1  0  0  0
 39 40  1  0  0  0
 39112  1  0  0  0
 39113  1  0  0  0
 40 41  1  0  0  0
 40114  1  0  0  0
 40115  1  0  0  0
 41 42  1  0  0  0
 41116  1  0  0  0
 41117  1  0  0  0
 42 43  1  0  0  0
 42118  1  0  0  0
 42119  1  0  0  0
 43 44  1  0  0  0
 43120  1  0  0  0
 43121  1  0  0  0
 44 45  1  0  0  0
 44122  1  0  0  0
 44123  1  0  0  0
 45124  1  0  0  0
 45125  1  0  0  0
 45126  1  0  0  0
 46 47  1  0  0  0
 46 51  1  0  0  0
 46127  1  0  0  0
 47 48  1  0  0  0
 47 52  1  0  0  0
 47128  1  0  0  0
 48 49  1  0  0  0
 48 53  1  0  0  0
 48129  1  0  0  0
 49 50  1  0  0  0
 49 54  1  0  0  0
 49130  1  0  0  0
 50 51  1  0  0  0
 50 55  1  0  0  0
 50131  1  0  0  0
 51 56  1  0  0  0
 51132  1  0  0  0
 52133  1  0  0  0
 53134  1  0  0  0
 54135  1  0  0  0
 55136  1  0  0  0
 56137  1  0  0  0
M  END
$$$$
