PIK
  CCTOOLS-0919241032

144144  0  0  1  0  0  0  0  0999 V2000
    0.5720   -2.0390    2.6760 P   0  0  0  0  0
    1.6540   -3.0140    2.4130 O   0  0  0  0  0
   -0.3460   -2.5690    3.8870 O   0  0  0  0  0
    1.2170   -0.6180    3.0740 O   0  0  0  0  0
   21.5560    2.3830   -4.8660 C   0  0  0  0  0
   20.7320    1.9940   -3.6380 C   0  0  0  0  0
   19.2520    2.2750   -3.9070 C   0  0  0  0  0
   18.4270    1.8860   -2.6790 C   0  0  0  0  0
   16.9470    2.1660   -2.9480 C   0  0  0  0  0
   16.1220    1.7770   -1.7200 C   0  0  0  0  0
   14.6430    2.0580   -1.9890 C   0  0  0  0  0
   13.8180    1.6690   -0.7610 C   0  0  0  0  0
   12.3380    1.9490   -1.0300 C   0  0  0  0  0
   11.5130    1.5610    0.1990 C   0  0  0  0  0
   10.0340    1.8410   -0.0710 C   0  0  0  0  0
    9.2090    1.4520    1.1580 C   0  0  0  0  0
    7.7290    1.7330    0.8880 C   0  0  0  0  0
    6.9040    1.3440    2.1160 C   0  0  0  0  0
    5.4240    1.6240    1.8470 C   0  0  0  0  0
    4.6120    1.2410    3.0570 C   0  0  0  0  0
    5.1600    0.7900    4.0350 O   0  0  0  0  0
    3.2790    1.4010    3.0490 O   0  0  0  0  0
    2.5610    1.0110    4.2490 C   0  0  0  0  0
    2.1520   -0.4600    4.1430 C   0  0  0  0  0
   -0.9530   -2.9680    0.6890 C   0  0  0  0  0
   -0.4370   -3.0540   -0.7490 C   0  0  0  0  0
   -1.1040   -4.2320   -1.4610 C   0  0  0  0  0
   -2.6200   -4.0270   -1.4750 C   0  0  0  0  0
   -3.1360   -3.9420   -0.0370 C   0  0  0  0  0
   -2.4690   -2.7630    0.6750 C   0  0  0  0  0
   -0.3300   -1.8670    1.3540 O   0  0  0  0  0
   -0.7480   -1.8420   -1.4400 O   0  0  0  0  0
   -0.6220   -4.3120   -2.8040 O   0  0  0  0  0
   -3.2430   -5.1280   -2.1400 O   0  0  0  0  0
   -4.5520   -3.7510   -0.0500 O   0  0  0  0  0
   -2.9510   -2.6830    2.0180 O   0  0  0  0  0
   -4.1450   -4.9570   -3.4630 P   0  0  0  0  0
   -3.3670   -4.2470   -4.5020 O   0  0  0  0  0
   -4.5750   -6.4080   -4.0110 O   0  0  0  0  0
   -5.4650   -4.1060   -3.1050 O   0  0  0  0  0
   -5.5830   -4.7840    0.6300 P   0  0  0  0  0
   -7.0770   -4.1900    0.5390 O   0  0  0  0  0
   -5.5180   -6.1940   -0.1440 O   0  0  0  0  0
   -5.2170   -4.9840    2.0500 O   0  0  0  0  0
    1.3100    1.8790    4.3990 C   0  0  0  0  0
    0.3990    1.6090    3.3020 O   0  0  0  0  0
   -0.7550    2.2940    3.2850 C   0  0  0  0  0
   -0.9970    3.0920    4.1590 O   0  0  0  0  0
   -1.7510    2.0670    2.1770 C   0  0  0  0  0
   -2.9700    2.9650    2.3940 C   0  0  0  0  0
   -3.9800    2.7350    1.2680 C   0  0  0  0  0
   -5.2000    3.6330    1.4860 C   0  0  0  0  0
   -6.2100    3.4030    0.3600 C   0  0  0  0  0
   -7.4290    4.3010    0.5780 C   0  0  0  0  0
   -8.4400    4.0710   -0.5480 C   0  0  0  0  0
   -9.6590    4.9690   -0.3310 C   0  0  0  0  0
  -10.6690    4.7390   -1.4560 C   0  0  0  0  0
  -11.8890    5.6370   -1.2390 C   0  0  0  0  0
  -12.8990    5.4070   -2.3640 C   0  0  0  0  0
  -14.1180    6.3050   -2.1470 C   0  0  0  0  0
  -15.1290    6.0750   -3.2720 C   0  0  0  0  0
  -16.3480    6.9730   -3.0550 C   0  0  0  0  0
  -17.3580    6.7430   -4.1810 C   0  0  0  0  0
   -1.0770   -1.9790    4.1150 H   0  0  0  0  0
   21.4200    3.4440   -5.0740 H   0  0  0  0  0
   22.6110    2.1830   -4.6740 H   0  0  0  0  0
   21.2260    1.7990   -5.7250 H   0  0  0  0  0
   20.8680    0.9330   -3.4290 H   0  0  0  0  0
   21.0620    2.5780   -2.7790 H   0  0  0  0  0
   19.1150    3.3360   -4.1150 H   0  0  0  0  0
   18.9220    1.6900   -4.7660 H   0  0  0  0  0
   18.5630    0.8240   -2.4700 H   0  0  0  0  0
   18.7570    2.4700   -1.8200 H   0  0  0  0  0
   16.8110    3.2270   -3.1560 H   0  0  0  0  0
   16.6170    1.5820   -3.8070 H   0  0  0  0  0
   16.2590    0.7160   -1.5110 H   0  0  0  0  0
   16.4520    2.3610   -0.8610 H   0  0  0  0  0
   14.5060    3.1190   -2.1970 H   0  0  0  0  0
   14.3130    1.4740   -2.8480 H   0  0  0  0  0
   13.9540    0.6080   -0.5520 H   0  0  0  0  0
   14.1480    2.2530    0.0980 H   0  0  0  0  0
   12.2020    3.0110   -1.2380 H   0  0  0  0  0
   12.0080    1.3650   -1.8890 H   0  0  0  0  0
   11.6500    0.4990    0.4070 H   0  0  0  0  0
   11.8430    2.1450    1.0580 H   0  0  0  0  0
    9.8970    2.9020   -0.2790 H   0  0  0  0  0
    9.7040    1.2570   -0.9300 H   0  0  0  0  0
    9.3450    0.3910    1.3660 H   0  0  0  0  0
    9.5390    2.0360    2.0160 H   0  0  0  0  0
    7.5930    2.7940    0.6800 H   0  0  0  0  0
    7.3990    1.1480    0.0290 H   0  0  0  0  0
    7.0410    0.2830    2.3250 H   0  0  0  0  0
    7.2340    1.9280    2.9760 H   0  0  0  0  0
    5.2880    2.6850    1.6390 H   0  0  0  0  0
    5.0950    1.0400    0.9880 H   0  0  0  0  0
    3.2050    1.1470    5.1180 H   0  0  0  0  0
    1.6920   -0.7770    5.0790 H   0  0  0  0  0
    3.0340   -1.0690    3.9470 H   0  0  0  0  0
   -0.7160   -3.8920    1.2150 H   0  0  0  0  0
    0.6430   -3.1990   -0.7390 H   0  0  0  0  0
   -0.8670   -5.1560   -0.9340 H   0  0  0  0  0
   -2.8570   -3.1030   -2.0020 H   0  0  0  0  0
   -2.8990   -4.8660    0.4900 H   0  0  0  0  0
   -2.7060   -1.8390    0.1480 H   0  0  0  0  0
   -0.4490   -1.8260   -2.3590 H   0  0  0  0  0
    0.3340   -4.4420   -2.8720 H   0  0  0  0  0
   -2.5700   -1.9570    2.5300 H   0  0  0  0  0
   -5.1210   -6.3810   -4.8080 H   0  0  0  0  0
   -6.0240   -4.5130   -2.4290 H   0  0  0  0  0
   -7.7520   -4.7610    0.9310 H   0  0  0  0  0
   -5.7470   -6.1390   -1.0820 H   0  0  0  0  0
    0.8190    1.6470    5.3440 H   0  0  0  0  0
    1.5940    2.9310    4.3860 H   0  0  0  0  0
   -1.2890    2.3060    1.2190 H   0  0  0  0  0
   -2.0640    1.0230    2.1780 H   0  0  0  0  0
   -3.4320    2.7260    3.3520 H   0  0  0  0  0
   -2.6570    4.0090    2.3930 H   0  0  0  0  0
   -3.5180    2.9740    0.3110 H   0  0  0  0  0
   -4.2940    1.6910    1.2700 H   0  0  0  0  0
   -5.6610    3.3940    2.4440 H   0  0  0  0  0
   -4.8860    4.6770    1.4850 H   0  0  0  0  0
   -5.7480    3.6420   -0.5970 H   0  0  0  0  0
   -6.5230    2.3590    0.3610 H   0  0  0  0  0
   -7.8910    4.0620    1.5350 H   0  0  0  0  0
   -7.1160    5.3450    0.5760 H   0  0  0  0  0
   -7.9780    4.3100   -1.5060 H   0  0  0  0  0
   -8.7530    3.0270   -0.5470 H   0  0  0  0  0
  -10.1210    4.7290    0.6270 H   0  0  0  0  0
   -9.3460    6.0130   -0.3320 H   0  0  0  0  0
  -10.2070    4.9780   -2.4140 H   0  0  0  0  0
  -10.9830    3.6950   -1.4550 H   0  0  0  0  0
  -12.3510    5.3970   -0.2810 H   0  0  0  0  0
  -11.5750    6.6810   -1.2400 H   0  0  0  0  0
  -12.4370    5.6460   -3.3220 H   0  0  0  0  0
  -13.2120    4.3630   -2.3630 H   0  0  0  0  0
  -14.5800    6.0650   -1.1890 H   0  0  0  0  0
  -13.8050    7.3490   -2.1480 H   0  0  0  0  0
  -14.6670    6.3140   -4.2300 H   0  0  0  0  0
  -15.4420    5.0310   -3.2710 H   0  0  0  0  0
  -16.8100    6.7330   -2.0970 H   0  0  0  0  0
  -16.0350    8.0170   -3.0560 H   0  0  0  0  0
  -16.8960    6.9820   -5.1380 H   0  0  0  0  0
  -17.6720    5.6990   -4.1800 H   0  0  0  0  0
  -18.2270    7.3830   -4.0260 H   0  0  0  0  0
  1  3  1  0  0  0
  2  1  2  0  0  0
  3 64  1  0  0  0
  4  1  1  0  0  0
  5 65  1  0  0  0
  5 66  1  0  0  0
  5 67  1  0  0  0
  6  5  1  0  0  0
  6 68  1  0  0  0
  6 69  1  0  0  0
  7  6  1  0  0  0
  7 70  1  0  0  0
  7 71  1  0  0  0
  8  7  1  0  0  0
  8 72  1  0  0  0
  8 73  1  0  0  0
  9 10  1  0  0  0
  9  8  1  0  0  0
  9 74  1  0  0  0
  9 75  1  0  0  0
 10 11  1  0  0  0
 10 76  1  0  0  0
 10 77  1  0  0  0
 11 78  1  0  0  0
 11 79  1  0  0  0
 12 11  1  0  0  0
 12 80  1  0  0  0
 12 81  1  0  0  0
 13 12  1  0  0  0
 13 82  1  0  0  0
 13 83  1  0  0  0
 14 13  1  0  0  0
 14 84  1  0  0  0
 14 85  1  0  0  0
 15 14  1  0  0  0
 15 86  1  0  0  0
 15 87  1  0  0  0
 16 17  1  0  0  0
 16 15  1  0  0  0
 16 88  1  0  0  0
 16 89  1  0  0  0
 17 90  1  0  0  0
 17 91  1  0  0  0
 18 19  1  0  0  0
 18 17  1  0  0  0
 18 92  1  0  0  0
 18 93  1  0  0  0
 19 94  1  0  0  0
 19 95  1  0  0  0
 20 19  1  0  0  0
 21 20  2  0  0  0
 22 20  1  0  0  0
 22 23  1  0  0  0
 23 24  1  0  0  0
 23 96  1  0  0  0
 24  4  1  0  0  0
 24 97  1  0  0  0
 24 98  1  0  0  0
 25 31  1  0  0  0
 25 30  1  0  0  0
 25 99  1  0  0  0
 26 25  1  0  0  0
 26100  1  0  0  0
 27 26  1  0  0  0
 27 28  1  0  0  0
 27101  1  0  0  0
 28 29  1  0  0  0
 28102  1  0  0  0
 29 30  1  0  0  0
 29 35  1  0  0  0
 29103  1  0  0  0
 30 36  1  0  0  0
 30104  1  0  0  0
 31  1  1  0  0  0
 32 26  1  0  0  0
 32105  1  0  0  0
 33 27  1  0  0  0
 33106  1  0  0  0
 34 28  1  0  0  0
 35 41  1  0  0  0
 36107  1  0  0  0
 37 39  1  0  0  0
 37 34  1  0  0  0
 37 40  1  0  0  0
 38 37  2  0  0  0
 39108  1  0  0  0
 40109  1  0  0  0
 41 43  1  0  0  0
 41 42  1  0  0  0
 42110  1  0  0  0
 43111  1  0  0  0
 44 41  2  0  0  0
 45 23  1  0  0  0
 45112  1  0  0  0
 45113  1  0  0  0
 46 47  1  0  0  0
 46 45  1  0  0  0
 47 48  2  0  0  0
 49 50  1  0  0  0
 49 47  1  0  0  0
 49114  1  0  0  0
 49115  1  0  0  0
 50 51  1  0  0  0
 50116  1  0  0  0
 50117  1  0  0  0
 51 52  1  0  0  0
 51118  1  0  0  0
 51119  1  0  0  0
 52 53  1  0  0  0
 52120  1  0  0  0
 52121  1  0  0  0
 53 54  1  0  0  0
 53122  1  0  0  0
 53123  1  0  0  0
 54 55  1  0  0  0
 54124  1  0  0  0
 54125  1  0  0  0
 55126  1  0  0  0
 55127  1  0  0  0
 56 55  1  0  0  0
 56 57  1  0  0  0
 56128  1  0  0  0
 56129  1  0  0  0
 57130  1  0  0  0
 57131  1  0  0  0
 58 57  1  0  0  0
 58 59  1  0  0  0
 58132  1  0  0  0
 58133  1  0  0  0
 59 60  1  0  0  0
 59134  1  0  0  0
 59135  1  0  0  0
 60 61  1  0  0  0
 60136  1  0  0  0
 60137  1  0  0  0
 61 62  1  0  0  0
 61138  1  0  0  0
 61139  1  0  0  0
 62 63  1  0  0  0
 62140  1  0  0  0
 62141  1  0  0  0
 63142  1  0  0  0
 63143  1  0  0  0
 63144  1  0  0  0
M  END
$$$$
