PIQ
  CCTOOLS-0919241032

 29 31  0  0  0  0  0  0  0  0999 V2000
    0.2910    0.0670    4.9950 N   0  0  0  0  0
    0.0020    0.0170    3.6500 C   0  0  0  0  0
    0.9170    0.1490    2.6460 N   0  0  0  0  0
    0.2270    0.0450    1.4490 C   0  0  0  0  0
    0.5980    0.0890    0.1170 C   0  0  0  0  0
   -0.3980   -0.0630   -0.8500 C   0  0  0  0  0
   -0.0560   -0.0190   -2.2930 C   0  0  0  0  0
   -0.8980    0.6330   -3.1910 C   0  0  0  0  0
   -0.5760    0.6700   -4.5320 C   0  0  0  0  0
    0.5790    0.0610   -4.9860 C   0  0  0  0  0
    1.4190   -0.5880   -4.0990 C   0  0  0  0  0
    1.1090   -0.6260   -2.7540 C   0  0  0  0  0
   -1.1930   -0.1640    3.1430 N   0  0  0  0  0
    2.3570    0.3650    2.8050 C   0  0  0  0  0
   -1.1230   -0.1600    1.7880 C   0  0  0  0  0
   -2.0380   -0.3010    0.8310 N   0  0  0  0  0
   -1.7180   -0.2590   -0.4420 C   0  0  0  0  0
   -0.4180   -0.0350    5.6480 H   0  0  0  0  0
    1.2040    0.2060    5.2900 H   0  0  0  0  0
    1.6290    0.2420   -0.1670 H   0  0  0  0  0
   -1.8020    1.1080   -2.8380 H   0  0  0  0  0
   -1.2280    1.1760   -5.2290 H   0  0  0  0  0
    0.8280    0.0930   -6.0370 H   0  0  0  0  0
    2.3200   -1.0630   -4.4590 H   0  0  0  0  0
    1.7650   -1.1340   -2.0630 H   0  0  0  0  0
    2.8670   -0.5960    2.8490 H   0  0  0  0  0
    2.7340    0.9370    1.9570 H   0  0  0  0  0
    2.5420    0.9170    3.7260 H   0  0  0  0  0
   -2.4900   -0.3780   -1.1870 H   0  0  0  0  0
  1  2  1  0  0  0
  1 18  1  0  0  0
  1 19  1  0  0  0
  2  3  1  0  0  0
  2 13  2  0  0  0
  3  4  1  0  0  0
  3 14  1  0  0  0
  4  5  2  0  0  0
  4 15  1  0  0  0
  5  6  1  0  0  0
  5 20  1  0  0  0
  6  7  1  0  0  0
  6 17  2  0  0  0
  7  8  1  0  0  0
  7 12  2  0  0  0
  8  9  2  0  0  0
  8 21  1  0  0  0
  9 10  1  0  0  0
  9 22  1  0  0  0
 10 11  2  0  0  0
 10 23  1  0  0  0
 11 12  1  0  0  0
 11 24  1  0  0  0
 12 25  1  0  0  0
 13 15  1  0  0  0
 14 26  1  0  0  0
 14 27  1  0  0  0
 14 28  1  0  0  0
 15 16  2  0  0  0
 16 17  1  0  0  0
 17 29  1  0  0  0
M  END
$$$$
