PIZ
  CCTOOLS-0919241032

149149  0  0  1  0  0  0  0  0999 V2000
   21.5290    2.0130   -5.0130 C   0  0  0  0  0
   20.7040    1.8470   -3.7350 C   0  0  0  0  0
   19.2240    2.0720   -4.0520 C   0  0  0  0  0
   18.3980    1.9060   -2.7740 C   0  0  0  0  0
   16.9180    2.1310   -3.0910 C   0  0  0  0  0
   16.0930    1.9660   -1.8130 C   0  0  0  0  0
   14.6130    2.1900   -2.1300 C   0  0  0  0  0
   13.7870    2.0250   -0.8520 C   0  0  0  0  0
   12.3070    2.2490   -1.1680 C   0  0  0  0  0
   11.4820    2.0840    0.1090 C   0  0  0  0  0
   10.0020    2.3080   -0.2070 C   0  0  0  0  0
    9.1760    2.1430    1.0700 C   0  0  0  0  0
    7.6960    2.3670    0.7540 C   0  0  0  0  0
    6.8710    2.2020    2.0310 C   0  0  0  0  0
    5.3910    2.4260    1.7150 C   0  0  0  0  0
    4.5780    2.2640    2.9730 C   0  0  0  0  0
    5.1260    1.9960    4.0160 O   0  0  0  0  0
    3.2450    2.4160    2.9350 O   0  0  0  0  0
    2.5260    2.2450    4.1850 C   0  0  0  0  0
    2.1200    0.7780    4.3430 C   0  0  0  0  0
    1.1870    0.4290    3.3190 O   0  0  0  0  0
    0.5460   -1.0410    3.1810 P   0  0  0  0  0
    1.6300   -2.0460    3.0970 O   0  0  0  0  0
   -0.3730   -1.3490    4.4670 O   0  0  0  0  0
   -0.3550   -1.1110    1.8490 O   0  0  0  0  0
   -0.9750   -2.3140    1.3900 C   0  0  0  0  0
   -0.4570   -2.6540   -0.0090 C   0  0  0  0  0
   -0.7700   -1.5860   -0.9050 O   0  0  0  0  0
   -1.1200   -3.9420   -0.4990 C   0  0  0  0  0
   -0.6370   -4.2600   -1.8060 O   0  0  0  0  0
    0.1350   -5.6310   -2.1460 P   0  0  0  0  0
    0.4170   -5.7100   -3.7290 O   0  0  0  0  0
    1.5340   -5.6710   -1.3490 O   0  0  0  0  0
   -0.7000   -6.7820   -1.7350 O   0  0  0  0  0
   -2.6370   -3.7470   -0.5510 C   0  0  0  0  0
   -3.2570   -4.9500   -1.0090 O   0  0  0  0  0
   -4.1580   -5.0200   -2.3410 P   0  0  0  0  0
   -4.5830   -6.5470   -2.6220 O   0  0  0  0  0
   -5.4800   -4.1230   -2.1430 O   0  0  0  0  0
   -3.3800   -4.5050   -3.4900 O   0  0  0  0  0
   -3.1550   -3.4070    0.8480 C   0  0  0  0  0
   -4.5720   -3.2250    0.8000 O   0  0  0  0  0
   -5.6010   -4.1230    1.6530 P   0  0  0  0  0
   -7.0960   -3.5580    1.4570 O   0  0  0  0  0
   -5.5320   -5.6480    1.1430 O   0  0  0  0  0
   -5.2360   -4.0650    3.0860 O   0  0  0  0  0
   -2.4910   -2.1190    1.3390 C   0  0  0  0  0
   -2.9760   -1.8020    2.6460 O   0  0  0  0  0
    1.2730    3.1230    4.1770 C   0  0  0  0  0
    0.3630    2.6590    3.1450 O   0  0  0  0  0
   -0.7920    3.3270    3.0060 C   0  0  0  0  0
   -1.0360    4.2680    3.7230 O   0  0  0  0  0
   -1.7860    2.9030    1.9540 C   0  0  0  0  0
   -3.0070    3.8230    2.0070 C   0  0  0  0  0
   -4.0160    3.3930    0.9400 C   0  0  0  0  0
   -5.2370    4.3130    0.9920 C   0  0  0  0  0
   -6.2460    3.8830   -0.0750 C   0  0  0  0  0
   -7.4670    4.8020   -0.0230 C   0  0  0  0  0
   -8.4760    4.3720   -1.0890 C   0  0  0  0  0
   -9.6970    5.2920   -1.0370 C   0  0  0  0  0
  -10.7060    4.8620   -2.1040 C   0  0  0  0  0
  -11.9270    5.7820   -2.0520 C   0  0  0  0  0
  -12.9360    5.3520   -3.1190 C   0  0  0  0  0
  -14.1570    6.2710   -3.0660 C   0  0  0  0  0
  -15.1660    5.8410   -4.1340 C   0  0  0  0  0
  -16.3880    6.7610   -4.0810 C   0  0  0  0  0
  -17.3960    6.3310   -5.1480 C   0  0  0  0  0
   21.2010    1.2840   -5.7540 H   0  0  0  0  0
   21.3900    3.0190   -5.4070 H   0  0  0  0  0
   22.5830    1.8530   -4.7870 H   0  0  0  0  0
   20.8420    0.8410   -3.3410 H   0  0  0  0  0
   21.0310    2.5760   -2.9940 H   0  0  0  0  0
   19.0850    3.0780   -4.4460 H   0  0  0  0  0
   18.8960    1.3430   -4.7930 H   0  0  0  0  0
   18.5370    0.9000   -2.3800 H   0  0  0  0  0
   18.7260    2.6350   -2.0330 H   0  0  0  0  0
   16.7790    3.1370   -3.4850 H   0  0  0  0  0
   16.5900    1.4020   -3.8320 H   0  0  0  0  0
   16.2310    0.9590   -1.4190 H   0  0  0  0  0
   16.4200    2.6950   -1.0720 H   0  0  0  0  0
   14.4740    3.1970   -2.5240 H   0  0  0  0  0
   14.2850    1.4610   -2.8710 H   0  0  0  0  0
   13.9260    1.0180   -0.4580 H   0  0  0  0  0
   14.1150    2.7540   -0.1110 H   0  0  0  0  0
   12.1680    3.2560   -1.5630 H   0  0  0  0  0
   11.9790    1.5200   -1.9100 H   0  0  0  0  0
   11.6200    1.0770    0.5040 H   0  0  0  0  0
   11.8090    2.8130    0.8500 H   0  0  0  0  0
    9.8630    3.3150   -0.6020 H   0  0  0  0  0
    9.6740    1.5790   -0.9480 H   0  0  0  0  0
    9.3150    1.1360    1.4650 H   0  0  0  0  0
    9.5040    2.8720    1.8110 H   0  0  0  0  0
    7.5580    3.3740    0.3590 H   0  0  0  0  0
    7.3690    1.6380    0.0130 H   0  0  0  0  0
    7.0100    1.1950    2.4260 H   0  0  0  0  0
    7.1990    2.9310    2.7730 H   0  0  0  0  0
    5.2520    3.4330    1.3200 H   0  0  0  0  0
    5.0630    1.6970    0.9740 H   0  0  0  0  0
    3.1680    2.5360    5.0170 H   0  0  0  0  0
    3.0040    0.1460    4.2600 H   0  0  0  0  0
    1.6600    0.6320    5.3200 H   0  0  0  0  0
   -1.1050   -0.7290    4.5850 H   0  0  0  0  0
   -0.7360   -3.1290    2.0740 H   0  0  0  0  0
    0.6240   -2.7930    0.0280 H   0  0  0  0  0
   -0.3810   -0.7370   -0.6550 H   0  0  0  0  0
   -0.8820   -4.7570    0.1840 H   0  0  0  0  0
    0.8800   -6.5120   -4.0060 H   0  0  0  0  0
    2.1330   -4.9450   -1.5690 H   0  0  0  0  0
   -2.8760   -2.9320   -1.2340 H   0  0  0  0  0
   -5.1290   -6.6650   -3.4120 H   0  0  0  0  0
   -6.0390   -4.4040   -1.4060 H   0  0  0  0  0
   -2.9170   -4.2220    1.5320 H   0  0  0  0  0
   -7.7700   -4.0520    1.9430 H   0  0  0  0  0
   -5.7600   -5.7620    0.2100 H   0  0  0  0  0
   -2.7300   -1.3040    0.6550 H   0  0  0  0  0
   -2.5960   -0.9950    3.0200 H   0  0  0  0  0
    0.7810    3.0620    5.1480 H   0  0  0  0  0
    1.5540    4.1560    3.9760 H   0  0  0  0  0
   -1.3230    2.9690    0.9700 H   0  0  0  0  0
   -2.0970    1.8750    2.1420 H   0  0  0  0  0
   -3.4700    3.7570    2.9920 H   0  0  0  0  0
   -2.6960    4.8510    1.8190 H   0  0  0  0  0
   -3.5530    3.4590   -0.0450 H   0  0  0  0  0
   -4.3270    2.3650    1.1270 H   0  0  0  0  0
   -5.7000    4.2470    1.9770 H   0  0  0  0  0
   -4.9260    5.3410    0.8050 H   0  0  0  0  0
   -5.7830    3.9480   -1.0600 H   0  0  0  0  0
   -6.5570    2.8550    0.1120 H   0  0  0  0  0
   -7.9300    4.7370    0.9620 H   0  0  0  0  0
   -7.1560    5.8300   -0.2100 H   0  0  0  0  0
   -8.0130    4.4380   -2.0740 H   0  0  0  0  0
   -8.7870    3.3450   -0.9020 H   0  0  0  0  0
  -10.1600    5.2260   -0.0520 H   0  0  0  0  0
   -9.3860    6.3200   -1.2240 H   0  0  0  0  0
  -10.2430    4.9280   -3.0890 H   0  0  0  0  0
  -11.0170    3.8340   -1.9170 H   0  0  0  0  0
  -12.3900    5.7160   -1.0670 H   0  0  0  0  0
  -11.6160    6.8100   -2.2390 H   0  0  0  0  0
  -12.4730    5.4180   -4.1040 H   0  0  0  0  0
  -13.2470    4.3240   -2.9310 H   0  0  0  0  0
  -14.6200    6.2060   -2.0820 H   0  0  0  0  0
  -13.8470    7.2990   -3.2540 H   0  0  0  0  0
  -14.7030    5.9070   -5.1180 H   0  0  0  0  0
  -15.4770    4.8130   -3.9460 H   0  0  0  0  0
  -16.8500    6.6950   -3.0960 H   0  0  0  0  0
  -16.0770    7.7890   -4.2680 H   0  0  0  0  0
  -16.9340    6.3970   -6.1330 H   0  0  0  0  0
  -17.7070    5.3030   -4.9610 H   0  0  0  0  0
  -18.2660    6.9860   -5.1110 H   0  0  0  0  0
  1 68  1  0  0  0
  1 69  1  0  0  0
  1 70  1  0  0  0
  2  1  1  0  0  0
  2 71  1  0  0  0
  2 72  1  0  0  0
  3  4  1  0  0  0
  3  2  1  0  0  0
  3 73  1  0  0  0
  3 74  1  0  0  0
  4 75  1  0  0  0
  4 76  1  0  0  0
  5  4  1  0  0  0
  5 77  1  0  0  0
  5 78  1  0  0  0
  6  5  1  0  0  0
  6  7  1  0  0  0
  6 79  1  0  0  0
  6 80  1  0  0  0
  7 81  1  0  0  0
  7 82  1  0  0  0
  8  7  1  0  0  0
  8 83  1  0  0  0
  8 84  1  0  0  0
  9  8  1  0  0  0
  9 85  1  0  0  0
  9 86  1  0  0  0
 10  9  1  0  0  0
 10 87  1  0  0  0
 10 88  1  0  0  0
 11 10  1  0  0  0
 11 89  1  0  0  0
 11 90  1  0  0  0
 12 11  1  0  0  0
 12 91  1  0  0  0
 12 92  1  0  0  0
 13 12  1  0  0  0
 13 93  1  0  0  0
 13 94  1  0  0  0
 14 13  1  0  0  0
 14 95  1  0  0  0
 14 96  1  0  0  0
 15 14  1  0  0  0
 15 97  1  0  0  0
 15 98  1  0  0  0
 16 15  1  0  0  0
 17 16  2  0  0  0
 18 16  1  0  0  0
 18 19  1  0  0  0
 19 99  1  0  0  0
 20 19  1  0  0  0
 20 21  1  0  0  0
 20100  1  0  0  0
 20101  1  0  0  0
 21 22  1  0  0  0
 22 23  2  0  0  0
 22 24  1  0  0  0
 24102  1  0  0  0
 25 22  1  0  0  0
 26 25  1  0  0  0
 26 27  1  0  0  0
 26103  1  0  0  0
 27 28  1  0  0  0
 27104  1  0  0  0
 28105  1  0  0  0
 29 27  1  0  0  0
 29 30  1  0  0  0
 29106  1  0  0  0
 30 31  1  0  0  0
 31 33  1  0  0  0
 31 32  1  0  0  0
 32107  1  0  0  0
 33108  1  0  0  0
 34 31  2  0  0  0
 35 29  1  0  0  0
 35109  1  0  0  0
 36 37  1  0  0  0
 36 35  1  0  0  0
 37 38  1  0  0  0
 38110  1  0  0  0
 39 37  1  0  0  0
 39111  1  0  0  0
 40 37  2  0  0  0
 41 47  1  0  0  0
 41 35  1  0  0  0
 41112  1  0  0  0
 42 41  1  0  0  0
 43 45  1  0  0  0
 43 42  1  0  0  0
 44 43  1  0  0  0
 44113  1  0  0  0
 45114  1  0  0  0
 46 43  2  0  0  0
 47 26  1  0  0  0
 47115  1  0  0  0
 48 47  1  0  0  0
 48116  1  0  0  0
 49 19  1  0  0  0
 49117  1  0  0  0
 49118  1  0  0  0
 50 51  1  0  0  0
 50 49  1  0  0  0
 51 52  2  0  0  0
 53 54  1  0  0  0
 53 51  1  0  0  0
 53119  1  0  0  0
 53120  1  0  0  0
 54 55  1  0  0  0
 54121  1  0  0  0
 54122  1  0  0  0
 55 56  1  0  0  0
 55123  1  0  0  0
 55124  1  0  0  0
 56 57  1  0  0  0
 56125  1  0  0  0
 56126  1  0  0  0
 57 58  1  0  0  0
 57127  1  0  0  0
 57128  1  0  0  0
 58 59  1  0  0  0
 58129  1  0  0  0
 58130  1  0  0  0
 59131  1  0  0  0
 59132  1  0  0  0
 60 59  1  0  0  0
 60 61  1  0  0  0
 60133  1  0  0  0
 60134  1  0  0  0
 61 62  1  0  0  0
 61135  1  0  0  0
 61136  1  0  0  0
 62 63  1  0  0  0
 62137  1  0  0  0
 62138  1  0  0  0
 63 64  1  0  0  0
 63139  1  0  0  0
 63140  1  0  0  0
 64 65  1  0  0  0
 64141  1  0  0  0
 64142  1  0  0  0
 65 66  1  0  0  0
 65143  1  0  0  0
 65144  1  0  0  0
 66 67  1  0  0  0
 66145  1  0  0  0
 66146  1  0  0  0
 67147  1  0  0  0
 67148  1  0  0  0
 67149  1  0  0  0
M  END
$$$$
