PL9
  CCTOOLS-0919241032

135135  0  0  0  0  0  0  0  0999 V2000
   -0.1130    1.3720    4.5470 C   0  0  0  0  0
   -0.4120    2.6670    4.6740 C   0  0  0  0  0
   -1.2840    3.1220    5.7850 C   0  0  0  0  0
   -1.8140    2.1000    6.7420 C   0  0  0  0  0
   -1.4910    0.8000    6.6080 C   0  0  0  0  0
   -0.6190    0.3540    5.4830 C   0  0  0  0  0
    0.0970    3.7040    3.7320 C   0  0  0  0  0
   -0.8800    4.0030    2.6310 C   0  0  0  0  0
   -0.6670    3.9270    1.3020 C   0  0  0  0  0
   -1.7230    4.2510    0.2760 C   0  0  0  0  0
    0.6680    3.5450    0.6800 C   0  0  0  0  0
    1.4080    4.5590   -0.2040 C   0  0  0  0  0
    1.7090    5.8530    0.5010 C   0  0  0  0  0
    2.7730    6.1350    1.2780 C   0  0  0  0  0
    2.9090    7.4970    1.9050 C   0  0  0  0  0
    3.8570    5.1430    1.6480 C   0  0  0  0  0
    5.2650    5.5420    1.1790 C   0  0  0  0  0
    6.3050    4.5260    1.5590 C   0  0  0  0  0
    7.1330    3.8360    0.7520 C   0  0  0  0  0
    8.1040    2.8450    1.3450 C   0  0  0  0  0
    7.2160    3.9990   -0.7490 C   0  0  0  0  0
    6.3150    3.0100   -1.4930 C   0  0  0  0  0
    6.4910    3.1230   -2.9820 C   0  0  0  0  0
    5.5680    3.4430   -3.9100 C   0  0  0  0  0
    5.9460    3.4690   -5.3700 C   0  0  0  0  0
    4.1330    3.8230   -3.6140 C   0  0  0  0  0
    3.0900    2.8850   -4.2440 C   0  0  0  0  0
    3.2410    1.4640   -3.7710 C   0  0  0  0  0
    2.7040    0.8780   -2.6820 C   0  0  0  0  0
    2.9240   -0.5640   -2.3020 C   0  0  0  0  0
    1.8040    1.6150   -1.6980 C   0  0  0  0  0
    0.4090    1.0220   -1.4330 C   0  0  0  0  0
   -0.4260    1.0330   -2.6860 C   0  0  0  0  0
   -0.9800   -0.0100   -3.3370 C   0  0  0  0  0
   -1.8020    0.1230   -4.5930 C   0  0  0  0  0
   -0.8340   -1.4570   -2.8800 C   0  0  0  0  0
   -1.8580   -1.9850   -1.8640 C   0  0  0  0  0
   -1.5580   -3.4060   -1.4710 C   0  0  0  0  0
   -1.3260   -3.8920   -0.2360 C   0  0  0  0  0
   -1.0420   -5.3600   -0.0450 C   0  0  0  0  0
   -1.3550   -3.0720    1.0370 C   0  0  0  0  0
   -2.4640   -3.4670    2.0190 C   0  0  0  0  0
   -2.5670   -2.5550    3.2110 C   0  0  0  0  0
   -3.3560   -1.4710    3.3350 C   0  0  0  0  0
   -3.3620   -0.6690    4.6100 C   0  0  0  0  0
   -4.2410   -0.9400    2.2330 C   0  0  0  0  0
   -5.6620   -1.5030    2.3010 C   0  0  0  0  0
   -6.5330   -0.8940    1.2390 C   0  0  0  0  0
   -6.7840   -1.3790    0.0080 C   0  0  0  0  0
   -7.6690   -0.7170   -1.0090 C   0  0  0  0  0
   -6.1850   -2.6860   -0.4350 C   0  0  0  0  0
   -2.7190    2.6600    7.8070 C   0  0  0  0  0
   -1.9260   -0.3050    7.5320 C   0  0  0  0  0
   -1.5570    4.3130    5.9140 O   0  0  0  0  0
   -0.3210   -0.8260    5.3180 O   0  0  0  0  0
    0.5220    1.0190    3.7400 H   0  0  0  0  0
    1.0700    3.3960    3.3370 H   0  0  0  0  0
    0.2810    4.6290    4.2920 H   0  0  0  0  0
   -1.8530    4.3250    2.9900 H   0  0  0  0  0
   -2.0220    3.3420   -0.2560 H   0  0  0  0  0
   -2.6210    4.7060    0.7000 H   0  0  0  0  0
   -1.3270    4.9650   -0.4560 H   0  0  0  0  0
    0.4950    2.6410    0.0810 H   0  0  0  0  0
    1.3510    3.2480    1.4880 H   0  0  0  0  0
    0.8410    4.7720   -1.1170 H   0  0  0  0  0
    2.3360    4.0950   -0.5510 H   0  0  0  0  0
    0.9760    6.6410    0.3340 H   0  0  0  0  0
    3.8490    7.9670    1.6050 H   0  0  0  0  0
    2.0970    8.1720    1.6170 H   0  0  0  0  0
    2.8970    7.4150    2.9970 H   0  0  0  0  0
    3.8700    5.0490    2.7430 H   0  0  0  0  0
    3.6170    4.1370    1.2860 H   0  0  0  0  0
    5.5330    6.4850    1.6710 H   0  0  0  0  0
    5.2560    5.7450    0.1050 H   0  0  0  0  0
    6.3800    4.3480    2.6300 H   0  0  0  0  0
    9.1300    3.1020    1.0620 H   0  0  0  0  0
    7.8870    1.8330    0.9880 H   0  0  0  0  0
    8.0630    2.8230    2.4390 H   0  0  0  0  0
    6.9660    5.0220   -1.0520 H   0  0  0  0  0
    8.2620    3.8630   -1.0550 H   0  0  0  0  0
    6.5700    1.9810   -1.2130 H   0  0  0  0  0
    5.2770    3.1620   -1.1840 H   0  0  0  0  0
    7.4940    2.8740   -3.3280 H   0  0  0  0  0
    5.3410    2.7540   -5.9360 H   0  0  0  0  0
    6.9980    3.2100   -5.5330 H   0  0  0  0  0
    5.7850    4.4690   -5.7850 H   0  0  0  0  0
    3.9660    4.8370   -4.0000 H   0  0  0  0  0
    3.9600    3.9060   -2.5360 H   0  0  0  0  0
    3.1680    2.9010   -5.3380 H   0  0  0  0  0
    2.1020    3.2860   -4.0020 H   0  0  0  0  0
    3.8730    0.8610   -4.4180 H   0  0  0  0  0
    3.6760   -1.0730   -2.9080 H   0  0  0  0  0
    1.9880   -1.1240   -2.3910 H   0  0  0  0  0
    3.2640   -0.6280   -1.2630 H   0  0  0  0  0
    1.6950    2.6510   -2.0450 H   0  0  0  0  0
    2.3380    1.6630   -0.7390 H   0  0  0  0  0
   -0.1110    1.6260   -0.6800 H   0  0  0  0  0
    0.5190    0.0120   -1.0310 H   0  0  0  0  0
   -0.5770    2.0320   -3.0860 H   0  0  0  0  0
   -2.8420   -0.1560   -4.3920 H   0  0  0  0  0
   -1.4110   -0.5440   -5.3690 H   0  0  0  0  0
   -1.8010    1.1280   -5.0180 H   0  0  0  0  0
   -0.8740   -2.0930   -3.7750 H   0  0  0  0  0
    0.1710   -1.5770   -2.4550 H   0  0  0  0  0
   -1.8760   -1.3220   -0.9950 H   0  0  0  0  0
   -2.8620   -1.9660   -2.3060 H   0  0  0  0  0
   -1.5340   -4.1040   -2.3070 H   0  0  0  0  0
   -1.0850   -5.9190   -0.9860 H   0  0  0  0  0
   -1.7770   -5.8040    0.6350 H   0  0  0  0  0
   -0.0430   -5.5060    0.3780 H   0  0  0  0  0
   -0.3900   -3.0960    1.5540 H   0  0  0  0  0
   -1.4920   -2.0170    0.7630 H   0  0  0  0  0
   -3.4170   -3.5060    1.4780 H   0  0  0  0  0
   -2.3000   -4.4890    2.3830 H   0  0  0  0  0
   -1.9420   -2.8380    4.0560 H   0  0  0  0  0
   -2.6950   -1.0910    5.3690 H   0  0  0  0  0
   -3.0340    0.3570    4.4140 H   0  0  0  0  0
   -4.3700   -0.6370    5.0370 H   0  0  0  0  0
   -3.8030   -1.1600    1.2520 H   0  0  0  0  0
   -4.2640    0.1560    2.2950 H   0  0  0  0  0
   -5.6490   -2.5960    2.2250 H   0  0  0  0  0
   -6.1140   -1.2810    3.2760 H   0  0  0  0  0
   -7.0020    0.0440    1.5290 H   0  0  0  0  0
   -8.1740    0.1740   -0.6300 H   0  0  0  0  0
   -8.4490   -1.4120   -1.3390 H   0  0  0  0  0
   -7.0800   -0.4220   -1.8840 H   0  0  0  0  0
   -6.9770   -3.4030   -0.6760 H   0  0  0  0  0
   -5.5670   -2.5360   -1.3260 H   0  0  0  0  0
   -5.5530   -3.1380    0.3370 H   0  0  0  0  0
   -2.5990    3.7380    7.8460 H   0  0  0  0  0
   -2.4560    2.2240    8.7660 H   0  0  0  0  0
   -3.7490    2.4120    7.5680 H   0  0  0  0  0
   -1.1410   -0.4960    8.2580 H   0  0  0  0  0
   -2.1180   -1.2030    6.9520 H   0  0  0  0  0
   -2.8360   -0.0060    8.0450 H   0  0  0  0  0
  1  2  2  0  0  0
  1  6  1  0  0  0
  1 56  1  0  0  0
  2  3  1  0  0  0
  2  7  1  0  0  0
  3  4  1  0  0  0
  3 54  2  0  0  0
  4  5  2  0  0  0
  4 52  1  0  0  0
  5  6  1  0  0  0
  5 53  1  0  0  0
  6 55  2  0  0  0
  7  8  1  0  0  0
  7 57  1  0  0  0
  7 58  1  0  0  0
  8  9  2  0  0  0
  8 59  1  0  0  0
  9 10  1  0  0  0
  9 11  1  0  0  0
 10 60  1  0  0  0
 10 61  1  0  0  0
 10 62  1  0  0  0
 11 12  1  0  0  0
 11 63  1  0  0  0
 11 64  1  0  0  0
 12 13  1  0  0  0
 12 65  1  0  0  0
 12 66  1  0  0  0
 13 14  2  0  0  0
 13 67  1  0  0  0
 14 15  1  0  0  0
 14 16  1  0  0  0
 15 68  1  0  0  0
 15 69  1  0  0  0
 15 70  1  0  0  0
 16 17  1  0  0  0
 16 71  1  0  0  0
 16 72  1  0  0  0
 17 18  1  0  0  0
 17 73  1  0  0  0
 17 74  1  0  0  0
 18 19  2  0  0  0
 18 75  1  0  0  0
 19 20  1  0  0  0
 19 21  1  0  0  0
 20 76  1  0  0  0
 20 77  1  0  0  0
 20 78  1  0  0  0
 21 22  1  0  0  0
 21 79  1  0  0  0
 21 80  1  0  0  0
 22 23  1  0  0  0
 22 81  1  0  0  0
 22 82  1  0  0  0
 23 24  2  0  0  0
 23 83  1  0  0  0
 24 25  1  0  0  0
 24 26  1  0  0  0
 25 84  1  0  0  0
 25 85  1  0  0  0
 25 86  1  0  0  0
 26 27  1  0  0  0
 26 87  1  0  0  0
 26 88  1  0  0  0
 27 28  1  0  0  0
 27 89  1  0  0  0
 27 90  1  0  0  0
 28 29  2  0  0  0
 28 91  1  0  0  0
 29 30  1  0  0  0
 29 31  1  0  0  0
 30 92  1  0  0  0
 30 93  1  0  0  0
 30 94  1  0  0  0
 31 32  1  0  0  0
 31 95  1  0  0  0
 31 96  1  0  0  0
 32 33  1  0  0  0
 32 97  1  0  0  0
 32 98  1  0  0  0
 33 34  2  0  0  0
 33 99  1  0  0  0
 34 35  1  0  0  0
 34 36  1  0  0  0
 35100  1  0  0  0
 35101  1  0  0  0
 35102  1  0  0  0
 36 37  1  0  0  0
 36103  1  0  0  0
 36104  1  0  0  0
 37 38  1  0  0  0
 37105  1  0  0  0
 37106  1  0  0  0
 38 39  2  0  0  0
 38107  1  0  0  0
 39 40  1  0  0  0
 39 41  1  0  0  0
 40108  1  0  0  0
 40109  1  0  0  0
 40110  1  0  0  0
 41 42  1  0  0  0
 41111  1  0  0  0
 41112  1  0  0  0
 42 43  1  0  0  0
 42113  1  0  0  0
 42114  1  0  0  0
 43 44  2  0  0  0
 43115  1  0  0  0
 44 45  1  0  0  0
 44 46  1  0  0  0
 45116  1  0  0  0
 45117  1  0  0  0
 45118  1  0  0  0
 46 47  1  0  0  0
 46119  1  0  0  0
 46120  1  0  0  0
 47 48  1  0  0  0
 47121  1  0  0  0
 47122  1  0  0  0
 48 49  2  0  0  0
 48123  1  0  0  0
 49 50  1  0  0  0
 49 51  1  0  0  0
 50124  1  0  0  0
 50125  1  0  0  0
 50126  1  0  0  0
 51127  1  0  0  0
 51128  1  0  0  0
 51129  1  0  0  0
 52130  1  0  0  0
 52131  1  0  0  0
 52132  1  0  0  0
 53133  1  0  0  0
 53134  1  0  0  0
 53135  1  0  0  0
M  END
$$$$
