PLC
  CCTOOLS-0919241032

107106  0  0  1  0  0  0  0  0999 V2000
   -2.7700    1.9550   -0.9610 C   0  0  0  0  0
   -1.5450    2.8160   -1.2780 C   0  0  0  0  0
   -0.9390    3.3410    0.0240 C   0  0  0  0  0
   -4.5520   -1.9860    1.3020 C   0  0  0  0  0
   -4.2690   -3.2070    2.1800 C   0  0  0  0  0
   -3.4690   -2.3010    4.9260 C   0  0  0  0  0
   -4.5440   -3.9550    4.1460 C   0  0  0  0  0
   -2.4240   -2.8260    3.1560 C   0  0  0  0  0
   -0.5820    1.9490   -3.3230 C   0  0  0  0  0
    0.4400    1.1170   -4.0530 C   0  0  0  0  0
    0.1940    1.2130   -5.5600 C   0  0  0  0  0
    1.2330    0.3690   -6.3010 C   0  0  0  0  0
    0.9860    0.4660   -7.8080 C   0  0  0  0  0
    2.0250   -0.3780   -8.5500 C   0  0  0  0  0
    1.7780   -0.2810  -10.0570 C   0  0  0  0  0
    2.8170   -1.1260  -10.7980 C   0  0  0  0  0
    2.5710   -1.0290  -12.3050 C   0  0  0  0  0
    3.6090   -1.8740  -13.0470 C   0  0  0  0  0
    3.3630   -1.7770  -14.5540 C   0  0  0  0  0
    4.4010   -2.6220  -15.2950 C   0  0  0  0  0
    0.0180    2.4440    2.0570 C   0  0  0  0  0
    0.4320    1.2820    2.9230 C   0  0  0  0  0
    1.0380    1.8070    4.2260 C   0  0  0  0  0
    1.4580    0.6280    5.1050 C   0  0  0  0  0
    2.0640    1.1530    6.4080 C   0  0  0  0  0
    2.4840   -0.0260    7.2880 C   0  0  0  0  0
    3.0900    0.4980    8.5900 C   0  0  0  0  0
    3.5100   -0.6800    9.4700 C   0  0  0  0  0
    4.1160   -0.1550   10.7730 C   0  0  0  0  0
    4.5360   -1.3350   11.6520 C   0  0  0  0  0
    5.1420   -0.8100   12.9550 C   0  0  0  0  0
    5.5620   -1.9890   13.8340 C   0  0  0  0  0
   -1.4210    2.5560   -3.9440 O   0  0  0  0  0
    0.1910    3.5760    2.4430 O   0  0  0  0  0
   -0.5600    2.0150   -1.9820 O   0  0  0  0  0
   -0.5410    2.2210    0.8580 O   0  0  0  0  0
   -4.2800   -0.4800   -1.1250 O   0  0  0  0  0
   -4.7850    0.9190    0.9130 O   0  0  0  0  0
   -2.3770    0.8530   -0.1400 O   0  0  0  0  0
   -3.3370   -1.2680    1.0780 O   0  0  0  0  0
   -3.8690   -2.7540    3.5530 N   0  3  0  0  0
   -3.7080   -0.0040    0.1530 P   0  0  0  0  0
   -3.5090    2.5570   -0.4330 H   0  0  0  0  0
   -3.2010    1.5810   -1.8890 H   0  0  0  0  0
   -1.8440    3.6560   -1.9050 H   0  0  0  0  0
   -1.6790    3.9430    0.5520 H   0  0  0  0  0
   -0.0670    3.9540   -0.2020 H   0  0  0  0  0
   -5.2700   -1.3370    1.8030 H   0  0  0  0  0
   -4.9620   -2.3130    0.3470 H   0  0  0  0  0
   -5.1660   -3.8220    2.2470 H   0  0  0  0  0
   -3.4600   -3.7910    1.7400 H   0  0  0  0  0
   -2.9100   -1.3680    4.8520 H   0  0  0  0  0
   -4.3620   -2.1420    5.5300 H   0  0  0  0  0
   -2.8450   -3.0630    5.3930 H   0  0  0  0  0
   -4.0330   -4.2430    5.0650 H   0  0  0  0  0
   -4.5070   -4.7800    3.4350 H   0  0  0  0  0
   -5.5840   -3.7140    4.3690 H   0  0  0  0  0
   -1.8560   -2.0820    3.7150 H   0  0  0  0  0
   -2.0360   -3.8200    3.3760 H   0  0  0  0  0
   -2.3310   -2.6260    2.0880 H   0  0  0  0  0
    1.4400    1.4870   -3.8240 H   0  0  0  0  0
    0.3560    0.0770   -3.7370 H   0  0  0  0  0
   -0.8040    0.8440   -5.7890 H   0  0  0  0  0
    0.2780    2.2530   -5.8760 H   0  0  0  0  0
    2.2320    0.7390   -6.0720 H   0  0  0  0  0
    1.1480   -0.6700   -5.9850 H   0  0  0  0  0
   -0.0120    0.0960   -8.0380 H   0  0  0  0  0
    1.0710    1.5050   -8.1240 H   0  0  0  0  0
    3.0240   -0.0080   -8.3210 H   0  0  0  0  0
    1.9400   -1.4180   -8.2340 H   0  0  0  0  0
    0.7790   -0.6510  -10.2860 H   0  0  0  0  0
    1.8630    0.7570  -10.3730 H   0  0  0  0  0
    2.7330   -2.1660  -10.4820 H   0  0  0  0  0
    3.8160   -0.7560  -10.5690 H   0  0  0  0  0
    1.5710   -1.3990  -12.5340 H   0  0  0  0  0
    2.6550    0.0090  -12.6210 H   0  0  0  0  0
    4.6090   -1.5040  -12.8170 H   0  0  0  0  0
    3.5250   -2.9130  -12.7310 H   0  0  0  0  0
    2.3630   -2.1470  -14.7830 H   0  0  0  0  0
    3.4470   -0.7380  -14.8700 H   0  0  0  0  0
    4.2260   -2.5530  -16.3690 H   0  0  0  0  0
    5.4010   -2.2520  -15.0660 H   0  0  0  0  0
    4.3170   -3.6610  -14.9790 H   0  0  0  0  0
    1.1720    0.6810    2.3950 H   0  0  0  0  0
   -0.4390    0.6690    3.1500 H   0  0  0  0  0
    0.2980    2.4090    4.7550 H   0  0  0  0  0
    1.9100    2.4210    4.0000 H   0  0  0  0  0
    2.1980    0.0260    4.5770 H   0  0  0  0  0
    0.5860    0.0150    5.3320 H   0  0  0  0  0
    1.3240    1.7540    6.9370 H   0  0  0  0  0
    2.9360    1.7660    6.1820 H   0  0  0  0  0
    3.2240   -0.6270    6.7590 H   0  0  0  0  0
    1.6120   -0.6390    7.5140 H   0  0  0  0  0
    2.3500    1.1000    9.1190 H   0  0  0  0  0
    3.9620    1.1120    8.3640 H   0  0  0  0  0
    4.2500   -1.2820    8.9410 H   0  0  0  0  0
    2.6380   -1.2930    9.6960 H   0  0  0  0  0
    3.3760    0.4460   11.3010 H   0  0  0  0  0
    4.9880    0.4570   10.5460 H   0  0  0  0  0
    5.2760   -1.9360   11.1230 H   0  0  0  0  0
    3.6640   -1.9480   11.8780 H   0  0  0  0  0
    4.4020   -0.2080   13.4830 H   0  0  0  0  0
    6.0140   -0.1960   12.7280 H   0  0  0  0  0
    6.3020   -2.5910   13.3050 H   0  0  0  0  0
    4.6900   -2.6020   14.0600 H   0  0  0  0  0
    5.9940   -1.6150   14.7620 H   0  0  0  0  0
   -4.3730    1.2070    1.7390 H   0  0  0  0  0
  1  2  1  0  0  0
  1 39  1  0  0  0
  1 43  1  0  0  0
  1 44  1  0  0  0
  2  3  1  0  0  0
  2 35  1  0  0  0
  2 45  1  0  0  0
  3 36  1  0  0  0
  3 46  1  0  0  0
  3 47  1  0  0  0
  4  5  1  0  0  0
  4 40  1  0  0  0
  4 48  1  0  0  0
  4 49  1  0  0  0
  5 41  1  0  0  0
  5 50  1  0  0  0
  5 51  1  0  0  0
  6 41  1  0  0  0
  6 52  1  0  0  0
  6 53  1  0  0  0
  6 54  1  0  0  0
  7 41  1  0  0  0
  7 55  1  0  0  0
  7 56  1  0  0  0
  7 57  1  0  0  0
  8 41  1  0  0  0
  8 58  1  0  0  0
  8 59  1  0  0  0
  8 60  1  0  0  0
  9 10  1  0  0  0
  9 33  2  0  0  0
  9 35  1  0  0  0
 10 11  1  0  0  0
 10 61  1  0  0  0
 10 62  1  0  0  0
 11 12  1  0  0  0
 11 63  1  0  0  0
 11 64  1  0  0  0
 12 13  1  0  0  0
 12 65  1  0  0  0
 12 66  1  0  0  0
 13 14  1  0  0  0
 13 67  1  0  0  0
 13 68  1  0  0  0
 14 15  1  0  0  0
 14 69  1  0  0  0
 14 70  1  0  0  0
 15 16  1  0  0  0
 15 71  1  0  0  0
 15 72  1  0  0  0
 16 17  1  0  0  0
 16 73  1  0  0  0
 16 74  1  0  0  0
 17 18  1  0  0  0
 17 75  1  0  0  0
 17 76  1  0  0  0
 18 19  1  0  0  0
 18 77  1  0  0  0
 18 78  1  0  0  0
 19 20  1  0  0  0
 19 79  1  0  0  0
 19 80  1  0  0  0
 20 81  1  0  0  0
 20 82  1  0  0  0
 20 83  1  0  0  0
 21 22  1  0  0  0
 21 34  2  0  0  0
 21 36  1  0  0  0
 22 23  1  0  0  0
 22 84  1  0  0  0
 22 85  1  0  0  0
 23 24  1  0  0  0
 23 86  1  0  0  0
 23 87  1  0  0  0
 24 25  1  0  0  0
 24 88  1  0  0  0
 24 89  1  0  0  0
 25 26  1  0  0  0
 25 90  1  0  0  0
 25 91  1  0  0  0
 26 27  1  0  0  0
 26 92  1  0  0  0
 26 93  1  0  0  0
 27 28  1  0  0  0
 27 94  1  0  0  0
 27 95  1  0  0  0
 28 29  1  0  0  0
 28 96  1  0  0  0
 28 97  1  0  0  0
 29 30  1  0  0  0
 29 98  1  0  0  0
 29 99  1  0  0  0
 30 31  1  0  0  0
 30100  1  0  0  0
 30101  1  0  0  0
 31 32  1  0  0  0
 31102  1  0  0  0
 31103  1  0  0  0
 32104  1  0  0  0
 32105  1  0  0  0
 32106  1  0  0  0
 37 42  2  0  0  0
 38 42  1  0  0  0
 38107  1  0  0  0
 39 42  1  0  0  0
 40 42  1  0  0  0
M  CHG  1  41   1
M  END
$$$$
