PLG
  CCTOOLS-1004241121

 35 35  0  0  0  0  0  0  0  0999 V2000
    3.4690    0.6370   -0.1200 N   0  0  0  0  0
    3.3890    0.2780   -1.3860 C   0  0  0  0  0
    4.5690    0.4940   -2.2990 C   0  0  0  0  0
    2.2280   -0.2900   -1.8880 C   0  0  0  0  0
    2.1500   -0.6580   -3.1940 O   0  0  0  0  0
    1.1480   -0.4880   -1.0330 C   0  0  0  0  0
   -0.1290   -1.1090   -1.5350 C   0  0  0  0  0
    1.2750   -0.0960    0.2890 C   0  0  0  0  0
    2.4630    0.4680    0.7140 C   0  0  0  0  0
    0.1320   -0.2840    1.2530 C   0  0  0  0  0
    0.5130    0.1960    2.5430 O   0  0  0  0  0
   -0.7470   -0.0340    3.5170 P   0  0  0  0  0
   -1.0720   -1.4760    3.5690 O   0  0  0  0  0
   -0.3850    0.4880    4.9960 O   0  0  0  0  0
   -2.0150    0.7820    2.9540 O   0  0  0  0  0
   -3.2160    0.3080   -3.0140 C   0  0  0  0  0
   -2.9210    1.4790   -2.9930 O   0  0  0  0  0
   -4.4070   -0.0750   -3.5000 O   0  0  0  0  0
   -2.2460   -0.7220   -2.4960 C   0  0  0  0  0
   -1.0260   -0.0540   -2.0240 N   0  0  0  0  0
    5.2110   -0.3860   -2.2770 H   0  0  0  0  0
    4.2150    0.6610   -3.3160 H   0  0  0  0  0
    5.1330    1.3640   -1.9630 H   0  0  0  0  0
    1.8080    0.1040   -3.6800 H   0  0  0  0  0
    0.0960   -1.7990   -2.3480 H   0  0  0  0  0
   -0.6140   -1.6500   -0.7230 H   0  0  0  0  0
    2.5680    0.7760    1.7440 H   0  0  0  0  0
   -0.7350    0.2710    0.8990 H   0  0  0  0  0
   -0.1160   -1.3430    1.3190 H   0  0  0  0  0
   -1.1650    0.3320    5.5460 H   0  0  0  0  0
   -1.7620    1.7150    2.9360 H   0  0  0  0  0
   -5.0290    0.5860   -3.8330 H   0  0  0  0  0
   -1.9930   -1.4180   -3.2960 H   0  0  0  0  0
   -2.7040   -1.2690   -1.6710 H   0  0  0  0  0
   -1.2900    0.4970   -1.2210 H   0  0  0  0  0
  1  2  2  0  0  0
  1  9  1  0  0  0
  2  3  1  0  0  0
  2  4  1  0  0  0
  3 21  1  0  0  0
  3 22  1  0  0  0
  3 23  1  0  0  0
  4  5  1  0  0  0
  4  6  2  0  0  0
  5 24  1  0  0  0
  6  7  1  0  0  0
  6  8  1  0  0  0
  7 20  1  0  0  0
  7 25  1  0  0  0
  7 26  1  0  0  0
  8  9  2  0  0  0
  8 10  1  0  0  0
  9 27  1  0  0  0
 10 11  1  0  0  0
 10 28  1  0  0  0
 10 29  1  0  0  0
 11 12  1  0  0  0
 12 13  2  0  0  0
 12 14  1  0  0  0
 12 15  1  0  0  0
 14 30  1  0  0  0
 15 31  1  0  0  0
 16 17  2  0  0  0
 16 18  1  0  0  0
 16 19  1  0  0  0
 18 32  1  0  0  0
 19 20  1  0  0  0
 19 33  1  0  0  0
 19 34  1  0  0  0
 20 35  1  0  0  0
M  END
$$$$
