PLM
  CCTOOLS-1004241121

 50 49  0  0  0  0  0  0  0  0999 V2000
    0.1420    0.0010   -8.1900 C   0  0  0  0  0
   -0.4490   -0.0040   -9.3950 O   0  0  0  0  0
    1.3470    0.0140   -8.1090 O   0  0  0  0  0
   -0.6970   -0.0070   -6.9390 C   0  0  0  0  0
    0.2150    0.0020   -5.7110 C   0  0  0  0  0
   -0.6360   -0.0070   -4.4410 C   0  0  0  0  0
    0.2760    0.0030   -3.2140 C   0  0  0  0  0
   -0.5760   -0.0060   -1.9430 C   0  0  0  0  0
    0.3370    0.0030   -0.7160 C   0  0  0  0  0
   -0.5150   -0.0050    0.5530 C   0  0  0  0  0
    0.3980    0.0040    1.7810 C   0  0  0  0  0
   -0.4540   -0.0050    3.0510 C   0  0  0  0  0
    0.4590    0.0050    4.2790 C   0  0  0  0  0
   -0.3930   -0.0040    5.5490 C   0  0  0  0  0
    0.5200    0.0050    6.7760 C   0  0  0  0  0
   -0.3320   -0.0030    8.0470 C   0  0  0  0  0
    0.5800    0.0060    9.2740 C   0  0  0  0  0
   -0.2710   -0.0030   10.5440 C   0  0  0  0  0
    0.0890    0.0010  -10.1980 H   0  0  0  0  0
   -1.3170   -0.9040   -6.9230 H   0  0  0  0  0
   -1.3360    0.8750   -6.9230 H   0  0  0  0  0
    0.8350    0.8990   -5.7270 H   0  0  0  0  0
    0.8540   -0.8800   -5.7270 H   0  0  0  0  0
   -1.2560   -0.9030   -4.4260 H   0  0  0  0  0
   -1.2750    0.8760   -4.4260 H   0  0  0  0  0
    0.8960    0.8990   -3.2290 H   0  0  0  0  0
    0.9150   -0.8800   -3.2290 H   0  0  0  0  0
   -1.1950   -0.9030   -1.9280 H   0  0  0  0  0
   -1.2140    0.8760   -1.9280 H   0  0  0  0  0
    0.9560    0.9000   -0.7310 H   0  0  0  0  0
    0.9760   -0.8790   -0.7310 H   0  0  0  0  0
   -1.1340   -0.9020    0.5690 H   0  0  0  0  0
   -1.1540    0.8770    0.5690 H   0  0  0  0  0
    1.0170    0.9010    1.7660 H   0  0  0  0  0
    1.0370   -0.8780    1.7660 H   0  0  0  0  0
   -1.0730   -0.9010    3.0670 H   0  0  0  0  0
   -1.0930    0.8780    3.0670 H   0  0  0  0  0
    1.0780    0.9010    4.2630 H   0  0  0  0  0
    1.0980   -0.8780    4.2630 H   0  0  0  0  0
   -1.0120   -0.9010    5.5640 H   0  0  0  0  0
   -1.0320    0.8780    5.5640 H   0  0  0  0  0
    1.1390    0.9020    6.7610 H   0  0  0  0  0
    1.1580   -0.8770    6.7610 H   0  0  0  0  0
   -0.9520   -0.9000    8.0620 H   0  0  0  0  0
   -0.9710    0.8790    8.0620 H   0  0  0  0  0
    1.2000    0.9030    9.2590 H   0  0  0  0  0
    1.2190   -0.8760    9.2590 H   0  0  0  0  0
    0.3790    0.0040   11.4190 H   0  0  0  0  0
   -0.9100    0.8800   10.5600 H   0  0  0  0  0
   -0.8910   -0.8990   10.5600 H   0  0  0  0  0
  1  2  1  0  0  0
  1  3  2  0  0  0
  1  4  1  0  0  0
  2 19  1  0  0  0
  4  5  1  0  0  0
  4 20  1  0  0  0
  4 21  1  0  0  0
  5  6  1  0  0  0
  5 22  1  0  0  0
  5 23  1  0  0  0
  6  7  1  0  0  0
  6 24  1  0  0  0
  6 25  1  0  0  0
  7  8  1  0  0  0
  7 26  1  0  0  0
  7 27  1  0  0  0
  8  9  1  0  0  0
  8 28  1  0  0  0
  8 29  1  0  0  0
  9 10  1  0  0  0
  9 30  1  0  0  0
  9 31  1  0  0  0
 10 11  1  0  0  0
 10 32  1  0  0  0
 10 33  1  0  0  0
 11 12  1  0  0  0
 11 34  1  0  0  0
 11 35  1  0  0  0
 12 13  1  0  0  0
 12 36  1  0  0  0
 12 37  1  0  0  0
 13 14  1  0  0  0
 13 38  1  0  0  0
 13 39  1  0  0  0
 14 15  1  0  0  0
 14 40  1  0  0  0
 14 41  1  0  0  0
 15 16  1  0  0  0
 15 42  1  0  0  0
 15 43  1  0  0  0
 16 17  1  0  0  0
 16 44  1  0  0  0
 16 45  1  0  0  0
 17 18  1  0  0  0
 17 46  1  0  0  0
 17 47  1  0  0  0
 18 48  1  0  0  0
 18 49  1  0  0  0
 18 50  1  0  0  0
M  END
$$$$
