PLS
  CCTOOLS-1004241121

 39 39  0  0  1  0  0  0  0  0999 V2000
   -0.5290    0.4260   -1.7270 N   0  0  0  0  0
   -1.6970   -0.0570   -2.4740 C   0  0  0  0  0
   -2.8160    0.9820   -2.4010 C   0  0  0  0  0
   -3.9530    0.5110   -3.1280 O   0  0  0  0  0
   -1.3140   -0.2820   -3.9140 C   0  0  0  0  0
   -1.8740   -1.1350   -4.5620 O   0  0  0  0  0
   -0.3510    0.4630   -4.4770 O   0  0  0  0  0
    3.5850    0.4400    0.9920 N   0  0  0  0  0
    3.7060    0.2110   -0.3000 C   0  0  0  0  0
    5.0480    0.3800   -0.9650 C   0  0  0  0  0
    2.6100   -0.1770   -1.0560 C   0  0  0  0  0
    2.7400   -0.4120   -2.3880 O   0  0  0  0  0
    1.3780   -0.3340   -0.4280 C   0  0  0  0  0
    0.1630   -0.7620   -1.2100 C   0  0  0  0  0
    1.2960   -0.0830    0.9310 C   0  0  0  0  0
    2.4320    0.3060    1.6150 C   0  0  0  0  0
   -0.0160   -0.2330    1.6550 C   0  0  0  0  0
    0.1630    0.0800    3.0370 O   0  0  0  0  0
   -1.2710   -0.0990    3.7460 P   0  0  0  0  0
   -1.7310   -1.4960    3.5810 O   0  0  0  0  0
   -1.1410    0.2400    5.3140 O   0  0  0  0  0
   -2.3350    0.8990    3.0660 O   0  0  0  0  0
   -0.8840    0.9260   -0.9260 H   0  0  0  0  0
   -2.0430   -0.9950   -2.0400 H   0  0  0  0  0
   -3.0930    1.1450   -1.3590 H   0  0  0  0  0
   -2.4700    1.9200   -2.8350 H   0  0  0  0  0
   -4.6330    1.1950   -3.0560 H   0  0  0  0  0
   -0.1050    0.3190   -5.4010 H   0  0  0  0  0
    5.5920   -0.5630   -0.9300 H   0  0  0  0  0
    4.9040    0.6780   -2.0030 H   0  0  0  0  0
    5.6190    1.1470   -0.4420 H   0  0  0  0  0
    2.5640    0.4250   -2.8380 H   0  0  0  0  0
    0.4700   -1.3940   -2.0430 H   0  0  0  0  0
   -0.5090   -1.3200   -0.5590 H   0  0  0  0  0
    2.3730    0.5030    2.6760 H   0  0  0  0  0
   -0.7510    0.4440    1.2210 H   0  0  0  0  0
   -0.3690   -1.2600    1.5590 H   0  0  0  0  0
   -2.0200    0.1200    5.7000 H   0  0  0  0  0
   -1.9980    1.7960    3.1960 H   0  0  0  0  0
  1  2  1  0  0  0
  1 14  1  0  0  0
  1 23  1  0  0  0
  2  3  1  0  0  0
  2  5  1  0  0  0
  2 24  1  0  0  0
  3  4  1  0  0  0
  3 25  1  0  0  0
  3 26  1  0  0  0
  4 27  1  0  0  0
  5  6  2  0  0  0
  5  7  1  0  0  0
  7 28  1  0  0  0
  8  9  2  0  0  0
  8 16  1  0  0  0
  9 10  1  0  0  0
  9 11  1  0  0  0
 10 29  1  0  0  0
 10 30  1  0  0  0
 10 31  1  0  0  0
 11 12  1  0  0  0
 11 13  2  0  0  0
 12 32  1  0  0  0
 13 14  1  0  0  0
 13 15  1  0  0  0
 14 33  1  0  0  0
 14 34  1  0  0  0
 15 16  2  0  0  0
 15 17  1  0  0  0
 16 35  1  0  0  0
 17 18  1  0  0  0
 17 36  1  0  0  0
 17 37  1  0  0  0
 18 19  1  0  0  0
 19 20  2  0  0  0
 19 21  1  0  0  0
 19 22  1  0  0  0
 21 38  1  0  0  0
 22 39  1  0  0  0
M  END
$$$$
