PLT
  CCTOOLS-0919241032

 50 52  0  0  1  0  0  0  0  0999 V2000
    2.9210    1.6310    2.8320 N   0  0  0  0  0
    3.4980    1.5500    1.6510 C   0  0  0  0  0
    4.8160    2.2430    1.4170 C   0  0  0  0  0
    2.9050    0.8380    0.6180 C   0  0  0  0  0
    3.5030    0.7580   -0.5970 O   0  0  0  0  0
    1.6800    0.1930    0.8550 C   0  0  0  0  0
    1.0110   -0.5810   -0.2070 C   0  0  0  0  0
    1.1100    0.3110    2.1280 C   0  0  0  0  0
    1.7690    1.0450    3.0930 C   0  0  0  0  0
   -0.2050   -0.3530    2.4400 C   0  0  0  0  0
   -0.5660   -0.0810    3.7960 O   0  0  0  0  0
   -1.9740   -0.8170    4.0590 P   0  0  0  0  0
   -1.8180   -2.2730    3.8380 O   0  0  0  0  0
   -2.4430   -0.5520    5.5760 O   0  0  0  0  0
   -3.0810   -0.2360    3.0450 O   0  0  0  0  0
    1.5550   -0.6770   -1.3760 N   0  0  0  0  0
    0.8910   -1.4460   -2.4320 C   0  0  0  0  0
    1.7920   -2.5690   -2.8780 C   0  0  0  0  0
    1.3150   -3.5980   -3.2930 O   0  0  0  0  0
    3.1250   -2.4250   -2.8150 O   0  0  0  0  0
    0.5920   -0.5290   -3.6190 C   0  0  0  0  0
   -0.3080    0.5920   -3.1730 C   0  0  0  0  0
    0.0780    1.7850   -2.6940 C   0  0  0  0  0
   -1.0170    2.5460   -2.3930 N   0  0  0  0  0
   -2.1670    1.8440   -2.6800 C   0  0  0  0  0
   -3.5220    2.1380   -2.5680 C   0  0  0  0  0
   -4.4590    1.2020   -2.9480 C   0  0  0  0  0
   -4.0650   -0.0330   -3.4420 C   0  0  0  0  0
   -2.7400   -0.3430   -3.5590 C   0  0  0  0  0
   -1.7730    0.5920   -3.1860 C   0  0  0  0  0
    5.6320    1.5640    1.6620 H   0  0  0  0  0
    4.8900    2.5370    0.3700 H   0  0  0  0  0
    4.8780    3.1290    2.0480 H   0  0  0  0  0
    3.1740    1.5010   -1.1200 H   0  0  0  0  0
    0.0680   -1.0670   -0.0090 H   0  0  0  0  0
    1.3350    1.1400    4.0770 H   0  0  0  0  0
   -0.9760    0.0350    1.7740 H   0  0  0  0  0
   -0.1110   -1.4290    2.2980 H   0  0  0  0  0
   -3.2880   -1.0090    5.6910 H   0  0  0  0  0
   -3.1520    0.7110    3.2220 H   0  0  0  0  0
   -0.0410   -1.8600   -2.0480 H   0  0  0  0  0
    3.7030   -3.1450   -3.1010 H   0  0  0  0  0
    1.5250   -0.1160   -4.0030 H   0  0  0  0  0
    0.0980   -1.1010   -4.4050 H   0  0  0  0  0
    1.1040    2.0970   -2.5640 H   0  0  0  0  0
   -0.9890    3.4460   -2.0330 H   0  0  0  0  0
   -3.8380    3.0970   -2.1850 H   0  0  0  0  0
   -5.5100    1.4330   -2.8600 H   0  0  0  0  0
   -4.8130   -0.7550   -3.7350 H   0  0  0  0  0
   -2.4410   -1.3070   -3.9440 H   0  0  0  0  0
  1  2  2  0  0  0
  1  9  1  0  0  0
  2  3  1  0  0  0
  2  4  1  0  0  0
  3 31  1  0  0  0
  3 32  1  0  0  0
  3 33  1  0  0  0
  4  5  1  0  0  0
  4  6  2  0  0  0
  5 34  1  0  0  0
  6  7  1  0  0  0
  6  8  1  0  0  0
  7 16  2  0  0  0
  7 35  1  0  0  0
  8  9  2  0  0  0
  8 10  1  0  0  0
  9 36  1  0  0  0
 10 11  1  0  0  0
 10 37  1  0  0  0
 10 38  1  0  0  0
 11 12  1  0  0  0
 12 13  2  0  0  0
 12 14  1  0  0  0
 12 15  1  0  0  0
 14 39  1  0  0  0
 15 40  1  0  0  0
 16 17  1  0  0  0
 17 18  1  0  0  0
 17 21  1  0  0  0
 17 41  1  0  0  0
 18 19  2  0  0  0
 18 20  1  0  0  0
 20 42  1  0  0  0
 21 22  1  0  0  0
 21 43  1  0  0  0
 21 44  1  0  0  0
 22 23  2  0  0  0
 22 30  1  0  0  0
 23 24  1  0  0  0
 23 45  1  0  0  0
 24 25  1  0  0  0
 24 46  1  0  0  0
 25 26  2  0  0  0
 25 30  1  0  0  0
 26 27  1  0  0  0
 26 47  1  0  0  0
 27 28  2  0  0  0
 27 48  1  0  0  0
 28 29  1  0  0  0
 28 49  1  0  0  0
 29 30  2  0  0  0
 29 50  1  0  0  0
M  END
$$$$
