PMO
  CCTOOLS-0919241033

 41 43  0  0  1  0  0  0  0  0999 V2000
   -0.9680    2.0030    2.4460 N   0  0  0  0  0
   -0.0900    0.2730    1.4480 N   0  0  0  0  0
   -0.5670    1.5380    1.2990 C   0  0  0  0  0
   -0.2100   -0.0560    2.7850 C   0  0  0  0  0
   -0.7760    1.0670    3.4110 C   0  0  0  0  0
   -1.0270    1.0370    4.7850 C   0  0  0  0  0
   -0.7080   -0.0900    5.5140 C   0  0  0  0  0
   -0.1480   -1.2000    4.8870 C   0  0  0  0  0
    0.0990   -1.1840    3.5320 C   0  0  0  0  0
   -0.9470   -0.1200    6.8530 O   0  0  0  0  0
   -0.5240   -1.4020    7.3200 C   0  0  0  0  0
   -0.9860   -0.2320   -5.1100 P   0  0  0  0  0
   -1.0280   -1.7120   -5.1070 O   0  0  0  0  0
   -2.3930    0.3420   -5.6410 O   0  0  0  0  0
    0.1980    0.2680   -6.0780 O   0  0  0  0  0
   -0.7190    0.3000   -3.6140 O   0  0  0  0  0
    0.5360   -0.2410   -3.2010 C   0  0  0  0  0
    0.8520    0.2280   -1.7800 C   0  0  0  0  0
   -0.1520   -0.2390   -0.8650 O   0  0  0  0  0
    2.1770   -0.4030   -1.2830 C   0  0  0  0  0
    3.3020    0.3830   -1.6790 O   0  0  0  0  0
    1.9700   -0.3530    0.2560 C   0  0  0  0  0
    2.3430    0.9230    0.7780 O   0  0  0  0  0
    0.4490   -0.5810    0.3880 C   0  0  0  0  0
   -0.6060    2.0780    0.3650 H   0  0  0  0  0
   -1.4660    1.8930    5.2750 H   0  0  0  0  0
    0.0930   -2.0790    5.4670 H   0  0  0  0  0
    0.5340   -2.0470    3.0510 H   0  0  0  0  0
   -0.6970   -1.4730    8.3940 H   0  0  0  0  0
   -1.0900   -2.1810    6.8080 H   0  0  0  0  0
    0.5380   -1.5320    7.1140 H   0  0  0  0  0
   -2.5140    0.0000   -6.5380 H   0  0  0  0  0
    0.1900    1.2350   -6.0510 H   0  0  0  0  0
    1.3190    0.0980   -3.8790 H   0  0  0  0  0
    0.4860   -1.3300   -3.2210 H   0  0  0  0  0
    0.9160    1.3160   -1.7470 H   0  0  0  0  0
    2.2770   -1.4310   -1.6320 H   0  0  0  0  0
    4.0890   -0.0640   -1.3400 H   0  0  0  0  0
    2.5280   -1.1500    0.7480 H   0  0  0  0  0
    3.2830    1.0410    0.5830 H   0  0  0  0  0
    0.2510   -1.6270    0.6200 H   0  0  0  0  0
  1  3  2  0  0  0
  1  5  1  0  0  0
  2  3  1  0  0  0
  2  4  1  0  0  0
  2 24  1  0  0  0
  3 25  1  0  0  0
  4  5  2  0  0  0
  4  9  1  0  0  0
  5  6  1  0  0  0
  6  7  2  0  0  0
  6 26  1  0  0  0
  7  8  1  0  0  0
  7 10  1  0  0  0
  8  9  2  0  0  0
  8 27  1  0  0  0
  9 28  1  0  0  0
 10 11  1  0  0  0
 11 29  1  0  0  0
 11 30  1  0  0  0
 11 31  1  0  0  0
 12 13  2  0  0  0
 12 14  1  0  0  0
 12 15  1  0  0  0
 12 16  1  0  0  0
 14 32  1  0  0  0
 15 33  1  0  0  0
 16 17  1  0  0  0
 17 18  1  0  0  0
 17 34  1  0  0  0
 17 35  1  0  0  0
 18 19  1  0  0  0
 18 20  1  0  0  0
 18 36  1  0  0  0
 19 24  1  0  0  0
 20 21  1  0  0  0
 20 22  1  0  0  0
 20 37  1  0  0  0
 21 38  1  0  0  0
 22 23  1  0  0  0
 22 24  1  0  0  0
 22 39  1  0  0  0
 23 40  1  0  0  0
 24 41  1  0  0  0
M  END
$$$$
