PMV
  CCTOOLS-0919241033

 27 26  0  0  1  0  0  0  0  0999 V2000
    3.6300   -1.0380    1.1380 O   0  0  0  0  0
    3.3840    0.0200   -0.0500 P   0  0  0  0  0
    4.4970    1.1810    0.0260 O   0  0  0  0  0
    3.4810   -0.6730   -1.3550 O   0  0  0  0  0
    1.9190    0.6690    0.1050 O   0  0  0  0  0
    0.7140   -0.0880   -0.0250 C   0  0  0  0  0
   -0.4910    0.8320    0.1790 C   0  0  0  0  0
   -1.7810    0.0220    0.0410 C   0  0  0  0  0
   -1.8560   -0.9380    1.0960 O   0  0  0  0  0
   -1.7870   -0.7020   -1.3080 C   0  0  0  0  0
   -2.9850    0.9620    0.1200 C   0  0  0  0  0
   -4.2560    0.1630   -0.0160 C   0  0  0  0  0
   -5.4460    0.7830    0.0240 O   0  0  0  0  0
   -4.2040   -1.0350   -0.1620 O   0  0  0  0  0
    3.5810   -0.6530    2.0240 H   0  0  0  0  0
    5.4050    0.8610   -0.0600 H   0  0  0  0  0
    0.6690   -0.5310   -1.0190 H   0  0  0  0  0
    0.6990   -0.8780    0.7260 H   0  0  0  0  0
   -0.4450    1.2760    1.1740 H   0  0  0  0  0
   -0.4760    1.6220   -0.5720 H   0  0  0  0  0
   -1.8570   -0.5500    1.9820 H   0  0  0  0  0
   -0.9290   -1.3720   -1.3640 H   0  0  0  0  0
   -2.7060   -1.2790   -1.4060 H   0  0  0  0  0
   -1.7300    0.0310   -2.1130 H   0  0  0  0  0
   -2.9810    1.4770    1.0810 H   0  0  0  0  0
   -2.9280    1.6940   -0.6850 H   0  0  0  0  0
   -6.2330    0.2290   -0.0670 H   0  0  0  0  0
  1  2  1  0  0  0
  1 15  1  0  0  0
  2  4  2  0  0  0
  2  3  1  0  0  0
  2  5  1  0  0  0
  3 16  1  0  0  0
  5  6  1  0  0  0
  6  7  1  0  0  0
  6 17  1  0  0  0
  6 18  1  0  0  0
  7  8  1  0  0  0
  7 19  1  0  0  0
  7 20  1  0  0  0
  8 10  1  0  0  0
  8 11  1  0  0  0
  8  9  1  0  0  0
  9 21  1  0  0  0
 10 22  1  0  0  0
 10 23  1  0  0  0
 10 24  1  0  0  0
 11 12  1  0  0  0
 11 25  1  0  0  0
 11 26  1  0  0  0
 12 14  2  0  0  0
 12 13  1  0  0  0
 13 27  1  0  0  0
M  END
$$$$
