PNP
  CCTOOLS-0919241033

 22 22  0  0  1  0  0  0  0  0999 V2000
   -0.0480   -0.8100    0.4640 C   0  0  0  0  0
    1.1720   -0.6820   -0.1940 C   0  0  0  0  0
    1.2070   -0.3400   -1.5140 C   0  0  0  0  0
    0.0040   -0.1160   -2.2110 C   0  0  0  0  0
   -1.2250   -0.2460   -1.5380 C   0  0  0  0  0
   -1.2430   -0.5940   -0.2190 C   0  0  0  0  0
   -0.0610   -0.1520    4.3970 C   0  0  0  0  0
    0.0300    0.2210   -3.5080 N   0  3  0  0  0
   -1.0110    0.4140   -4.1070 O   0  0  0  0  0
    1.0960    0.3330   -4.0870 O   0  5  0  0  0
   -0.0290    0.2220    2.6140 P   0  0  0  0  0
   -0.0740   -1.1500    1.7750 O   0  0  0  0  0
   -1.2030    1.0530    2.2630 O   0  0  0  0  0
    1.3200    1.0240    2.2580 O   0  0  0  0  0
    2.0940   -0.8550    0.3410 H   0  0  0  0  0
    2.1540   -0.2420   -2.0230 H   0  0  0  0  0
   -2.1520   -0.0750   -2.0650 H   0  0  0  0  0
   -2.1860   -0.6950    0.2970 H   0  0  0  0  0
   -0.0300    0.7770    4.9650 H   0  0  0  0  0
   -0.9750   -0.6950    4.6380 H   0  0  0  0  0
    0.8020   -0.7640    4.6550 H   0  0  0  0  0
    2.0590    0.4490    2.5010 H   0  0  0  0  0
  1  2  2  0  0  0
  1  6  1  0  0  0
  1 12  1  0  0  0
  2  3  1  0  0  0
  2 15  1  0  0  0
  3  4  2  0  0  0
  3 16  1  0  0  0
  4  5  1  0  0  0
  4  8  1  0  0  0
  5  6  2  0  0  0
  5 17  1  0  0  0
  6 18  1  0  0  0
  7 11  1  0  0  0
  7 19  1  0  0  0
  7 20  1  0  0  0
  7 21  1  0  0  0
  8  9  2  0  0  0
  8 10  1  0  0  0
 11 12  1  0  0  0
 11 13  2  0  0  0
 11 14  1  0  0  0
 14 22  1  0  0  0
M  CHG  1   8   1
M  CHG  1  10  -1
M  END
$$$$
