POQ
  CCTOOLS-0919241033

 72 73  0  0  1  0  0  0  0  0999 V2000
   -5.0620   -0.4530    1.5800 C   0  0  0  0  0
   -4.7890    0.1990    2.8220 O   0  0  0  0  0
   -6.4010    0.0430    1.0290 C   0  0  0  0  0
   -6.3340    1.5630    0.8410 C   0  0  0  0  0
   -6.2120    2.2020    2.1130 O   0  0  0  0  0
   -5.1080    1.8940   -0.0210 C   0  0  0  0  0
   -5.2940    1.3750   -1.3400 O   0  0  0  0  0
   -3.8670    1.2590    0.6090 C   0  0  0  0  0
   -4.0190   -0.1590    0.6520 O   0  0  0  0  0
   -2.6350    1.6130   -0.2270 C   0  0  0  0  0
   -8.0420   -1.3960   -0.0660 P   0  0  0  0  0
   -6.6620   -0.5830   -0.2290 O   0  0  0  0  0
   -9.1030   -0.4780    0.4050 O   0  0  0  0  0
   -7.8440   -2.5820    1.0050 O   0  0  0  0  0
   -8.4670   -2.0220   -1.4870 O   0  0  0  0  0
   -9.7490   -2.6260   -1.3060 C   0  0  0  0  0
  -10.2140   -3.2430   -2.6270 C   0  0  0  0  0
   -0.2100    1.5300   -0.5050 P   0  0  0  0  0
   -1.4610    1.1250    0.4250 O   0  0  0  0  0
   -0.3120    0.7520   -1.9100 O   0  0  0  0  0
    1.1610    1.1260    0.2350 O   0  0  0  0  0
   -0.2290    2.9900   -0.7470 O   0  0  0  0  0
    4.8910   -0.4480    0.8620 C   0  0  0  0  0
    4.9870   -1.8590    1.0610 O   0  0  0  0  0
    6.1370    0.0470    0.1240 C   0  0  0  0  0
    6.0410    1.5660   -0.0560 C   0  0  0  0  0
    7.1220    2.0220   -0.8710 O   0  0  0  0  0
    4.7070    1.8950   -0.7340 C   0  0  0  0  0
    4.5300    3.3130   -0.7790 O   0  0  0  0  0
    3.5690    1.2620    0.0700 C   0  0  0  0  0
    3.7260   -0.1550    0.0930 O   0  0  0  0  0
    2.2290    1.6150   -0.5800 C   0  0  0  0  0
    8.2150   -1.2250   -0.0390 P   0  0  0  0  0
    7.3030   -0.2740    0.8850 O   0  0  0  0  0
    8.7200   -0.3990   -1.3260 O   0  0  0  0  0
    7.4200   -2.3910   -0.4830 O   0  0  0  0  0
    9.4880   -1.7330    0.8050 O   0  0  0  0  0
   10.1910   -2.6600   -0.0240 C   0  0  0  0  0
   11.4190   -3.1840    0.7230 C   0  0  0  0  0
   -5.1120   -1.5300    1.7390 H   0  0  0  0  0
   -3.9390   -0.1400    3.1350 H   0  0  0  0  0
   -7.1980   -0.2030    1.7310 H   0  0  0  0  0
   -7.2380    1.9110    0.3410 H   0  0  0  0  0
   -6.1600    3.1530    1.9440 H   0  0  0  0  0
   -4.9790    2.9760   -0.0700 H   0  0  0  0  0
   -6.0840    1.8010   -1.6990 H   0  0  0  0  0
   -3.7390    1.6400    1.6220 H   0  0  0  0  0
   -2.7210    1.1540   -1.2120 H   0  0  0  0  0
   -2.5680    2.6950   -0.3350 H   0  0  0  0  0
   -7.1460   -3.1560    0.6600 H   0  0  0  0  0
  -10.4660   -1.8680   -0.9880 H   0  0  0  0  0
   -9.6810   -3.4040   -0.5460 H   0  0  0  0  0
   -9.4970   -4.0000   -2.9460 H   0  0  0  0  0
  -11.1920   -3.7040   -2.4890 H   0  0  0  0  0
  -10.2820   -2.4650   -3.3870 H   0  0  0  0  0
   -0.2970   -0.1940   -1.7080 H   0  0  0  0  0
    4.8210    0.0500    1.8290 H   0  0  0  0  0
    4.1870   -2.1300    1.5320 H   0  0  0  0  0
    6.1960   -0.4330   -0.8530 H   0  0  0  0  0
    6.0870    2.0530    0.9180 H   0  0  0  0  0
    7.0230    2.9800   -0.9580 H   0  0  0  0  0
    4.7050    1.4960   -1.7480 H   0  0  0  0  0
    5.2700    3.6710   -1.2870 H   0  0  0  0  0
    3.5890    1.6460    1.0900 H   0  0  0  0  0
    2.1720    1.1560   -1.5670 H   0  0  0  0  0
    2.1460    2.6970   -0.6770 H   0  0  0  0  0
    9.2330    0.3510   -0.9930 H   0  0  0  0  0
    9.5350   -3.4940   -0.2750 H   0  0  0  0  0
   10.5090   -2.1610   -0.9390 H   0  0  0  0  0
   11.1010   -3.6840    1.6380 H   0  0  0  0  0
   11.9550   -3.8920    0.0900 H   0  0  0  0  0
   12.0750   -2.3510    0.9730 H   0  0  0  0  0
  1  2  1  0  0  0
  1  3  1  0  0  0
  1  9  1  0  0  0
  1 40  1  0  0  0
  2 41  1  0  0  0
  3  4  1  0  0  0
  3 12  1  0  0  0
  3 42  1  0  0  0
  4  5  1  0  0  0
  4  6  1  0  0  0
  4 43  1  0  0  0
  5 44  1  0  0  0
  6  7  1  0  0  0
  6  8  1  0  0  0
  6 45  1  0  0  0
  7 46  1  0  0  0
  8  9  1  0  0  0
  8 10  1  0  0  0
  8 47  1  0  0  0
 10 19  1  0  0  0
 10 48  1  0  0  0
 10 49  1  0  0  0
 11 12  1  0  0  0
 11 13  2  0  0  0
 11 14  1  0  0  0
 11 15  1  0  0  0
 14 50  1  0  0  0
 15 16  1  0  0  0
 16 17  1  0  0  0
 16 51  1  0  0  0
 16 52  1  0  0  0
 17 53  1  0  0  0
 17 54  1  0  0  0
 17 55  1  0  0  0
 18 19  1  0  0  0
 18 20  1  0  0  0
 18 21  1  0  0  0
 18 22  2  0  0  0
 20 56  1  0  0  0
 21 32  1  0  0  0
 23 24  1  0  0  0
 23 25  1  0  0  0
 23 31  1  0  0  0
 23 57  1  0  0  0
 24 58  1  0  0  0
 25 26  1  0  0  0
 25 34  1  0  0  0
 25 59  1  0  0  0
 26 27  1  0  0  0
 26 28  1  0  0  0
 26 60  1  0  0  0
 27 61  1  0  0  0
 28 29  1  0  0  0
 28 30  1  0  0  0
 28 62  1  0  0  0
 29 63  1  0  0  0
 30 31  1  0  0  0
 30 32  1  0  0  0
 30 64  1  0  0  0
 32 65  1  0  0  0
 32 66  1  0  0  0
 33 34  1  0  0  0
 33 35  1  0  0  0
 33 36  2  0  0  0
 33 37  1  0  0  0
 35 67  1  0  0  0
 37 38  1  0  0  0
 38 39  1  0  0  0
 38 68  1  0  0  0
 38 69  1  0  0  0
 39 70  1  0  0  0
 39 71  1  0  0  0
 39 72  1  0  0  0
M  END
$$$$
