PP9
  CCTOOLS-0919241033

 76 80  0  0  0  0  0  0  0  0999 V2000
    0.0000    0.0000    0.0000 C   0  0  0  0  0
    0.0000    0.0000    0.0000 C   0  0  0  0  0
    0.0000    0.0000    0.0000 C   0  0  0  0  0
    0.0000    0.0000    0.0000 C   0  0  0  0  0
    0.0000    0.0000    0.0000 N   0  0  0  0  0
    0.0000    0.0000    0.0000 C   0  0  0  0  0
    0.0000    0.0000    0.0000 C   0  0  0  0  0
    0.0000    0.0000    0.0000 C   0  0  0  0  0
    0.0000    0.0000    0.0000 C   0  0  0  0  0
    0.0000    0.0000    0.0000 C   0  0  0  0  0
    0.0000    0.0000    0.0000 C   0  0  0  0  0
    0.0000    0.0000    0.0000 C   0  0  0  0  0
    0.0000    0.0000    0.0000 C   0  0  0  0  0
    0.0000    0.0000    0.0000 O   0  0  0  0  0
    0.0000    0.0000    0.0000 O   0  0  0  0  0
    0.0000    0.0000    0.0000 N   0  0  0  0  0
    0.0000    0.0000    0.0000 C   0  0  0  0  0
    0.0000    0.0000    0.0000 C   0  0  0  0  0
    0.0000    0.0000    0.0000 C   0  0  0  0  0
    0.0000    0.0000    0.0000 C   0  0  0  0  0
    0.0000    0.0000    0.0000 C   0  0  0  0  0
    0.0000    0.0000    0.0000 C   0  0  0  0  0
    0.0000    0.0000    0.0000 C   0  0  0  0  0
    0.0000    0.0000    0.0000 N   0  0  0  0  0
    0.0000    0.0000    0.0000 C   0  0  0  0  0
    0.0000    0.0000    0.0000 C   0  0  0  0  0
    0.0000    0.0000    0.0000 C   0  0  0  0  0
    0.0000    0.0000    0.0000 C   0  0  0  0  0
    0.0000    0.0000    0.0000 C   0  0  0  0  0
    0.0000    0.0000    0.0000 C   0  0  0  0  0
    0.0000    0.0000    0.0000 C   0  0  0  0  0
    0.0000    0.0000    0.0000 N   0  0  0  0  0
    0.0000    0.0000    0.0000 C   0  0  0  0  0
    0.0000    0.0000    0.0000 C   0  0  0  0  0
    0.0000    0.0000    0.0000 C   0  0  0  0  0
    0.0000    0.0000    0.0000 C   0  0  0  0  0
    0.0000    0.0000    0.0000 C   0  0  0  0  0
    0.0000    0.0000    0.0000 C   0  0  0  0  0
    0.0000    0.0000    0.0000 C   0  0  0  0  0
    0.0000    0.0000    0.0000 C   0  0  0  0  0
    0.0000    0.0000    0.0000 O   0  0  0  0  0
    0.0000    0.0000    0.0000 O   0  0  0  0  0
    0.0000    0.0000    0.0000 H   0  0  0  0  0
    0.0000    0.0000    0.0000 H   0  0  0  0  0
    0.0000    0.0000    0.0000 H   0  0  0  0  0
    0.0000    0.0000    0.0000 H   0  0  0  0  0
    0.0000    0.0000    0.0000 H   0  0  0  0  0
    0.0000    0.0000    0.0000 H   0  0  0  0  0
    0.0000    0.0000    0.0000 H   0  0  0  0  0
    0.0000    0.0000    0.0000 H   0  0  0  0  0
    0.0000    0.0000    0.0000 H   0  0  0  0  0
    0.0000    0.0000    0.0000 H   0  0  0  0  0
    0.0000    0.0000    0.0000 H   0  0  0  0  0
    0.0000    0.0000    0.0000 H   0  0  0  0  0
    0.0000    0.0000    0.0000 H   0  0  0  0  0
    0.0000    0.0000    0.0000 H   0  0  0  0  0
    0.0000    0.0000    0.0000 H   0  0  0  0  0
    0.0000    0.0000    0.0000 H   0  0  0  0  0
    0.0000    0.0000    0.0000 H   0  0  0  0  0
    0.0000    0.0000    0.0000 H   0  0  0  0  0
    0.0000    0.0000    0.0000 H   0  0  0  0  0
    0.0000    0.0000    0.0000 H   0  0  0  0  0
    0.0000    0.0000    0.0000 H   0  0  0  0  0
    0.0000    0.0000    0.0000 H   0  0  0  0  0
    0.0000    0.0000    0.0000 H   0  0  0  0  0
    0.0000    0.0000    0.0000 H   0  0  0  0  0
    0.0000    0.0000    0.0000 H   0  0  0  0  0
    0.0000    0.0000    0.0000 H   0  0  0  0  0
    0.0000    0.0000    0.0000 H   0  0  0  0  0
    0.0000    0.0000    0.0000 H   0  0  0  0  0
    0.0000    0.0000    0.0000 H   0  0  0  0  0
    0.0000    0.0000    0.0000 H   0  0  0  0  0
    0.0000    0.0000    0.0000 H   0  0  0  0  0
    0.0000    0.0000    0.0000 H   0  0  0  0  0
    0.0000    0.0000    0.0000 H   0  0  0  0  0
    0.0000    0.0000    0.0000 H   0  0  0  0  0
  1  6  1  0  0  0
  1 36  2  0  0  0
  1 43  1  0  0  0
  2  9  1  0  0  0
  2 17  2  0  0  0
  2 44  1  0  0  0
  3 20  1  0  0  0
  3 25  2  0  0  0
  3 45  1  0  0  0
  4 28  2  0  0  0
  4 33  1  0  0  0
  4 46  1  0  0  0
  5  6  1  0  0  0
  5  9  1  0  0  0
  5 47  1  0  0  0
  6  7  2  0  0  0
  7  8  1  0  0  0
  7 11  1  0  0  0
  8  9  2  0  0  0
  8 10  1  0  0  0
 10 48  1  0  0  0
 10 49  1  0  0  0
 10 50  1  0  0  0
 11 12  1  0  0  0
 11 51  1  0  0  0
 11 52  1  0  0  0
 12 13  1  0  0  0
 12 53  1  0  0  0
 12 54  1  0  0  0
 13 14  2  0  0  0
 13 15  1  0  0  0
 15 55  1  0  0  0
 16 17  1  0  0  0
 16 20  2  0  0  0
 17 18  1  0  0  0
 18 19  2  0  0  0
 18 21  1  0  0  0
 19 20  1  0  0  0
 19 22  1  0  0  0
 21 56  1  0  0  0
 21 57  1  0  0  0
 21 58  1  0  0  0
 22 23  2  0  0  0
 22 59  1  0  0  0
 23 60  1  0  0  0
 23 61  1  0  0  0
 24 25  1  0  0  0
 24 28  1  0  0  0
 24 62  1  0  0  0
 25 26  1  0  0  0
 26 27  2  0  0  0
 26 29  1  0  0  0
 27 28  1  0  0  0
 27 30  1  0  0  0
 29 63  1  0  0  0
 29 64  1  0  0  0
 29 65  1  0  0  0
 30 31  2  0  0  0
 30 66  1  0  0  0
 31 67  1  0  0  0
 31 68  1  0  0  0
 32 33  2  0  0  0
 32 36  1  0  0  0
 33 34  1  0  0  0
 34 35  2  0  0  0
 34 37  1  0  0  0
 35 36  1  0  0  0
 35 38  1  0  0  0
 37 69  1  0  0  0
 37 70  1  0  0  0
 37 71  1  0  0  0
 38 39  1  0  0  0
 38 72  1  0  0  0
 38 73  1  0  0  0
 39 40  1  0  0  0
 39 74  1  0  0  0
 39 75  1  0  0  0
 40 41  2  0  0  0
 40 42  1  0  0  0
 42 76  1  0  0  0
M  END
$$$$
