PPV
  CCTOOLS-0919241033

 13 12  0  0  0  0  0  0  0  0999 V2000
    0.3360   -0.9120    2.6280 O   0  0  0  0  0
    0.0620   -0.0560    1.2920 P   0  0  0  0  0
   -1.4720    0.4280    1.2700 O   0  0  0  0  0
    0.9540    1.1240    1.2720 O   0  0  0  0  0
    0.3550   -0.9710    0.0000 O   0  0  0  0  0
    0.0620   -0.0560   -1.2920 P   0  0  0  0  0
    0.3360   -0.9120   -2.6280 O   0  0  0  0  0
    0.9540    1.1240   -1.2720 O   0  0  0  0  0
   -1.4720    0.4280   -1.2700 O   0  0  0  0  0
    0.1500   -0.3290    3.3770 H   0  0  0  0  0
   -2.0170   -0.3700    1.2840 H   0  0  0  0  0
    0.1500   -0.3290   -3.3770 H   0  0  0  0  0
   -2.0170   -0.3700   -1.2840 H   0  0  0  0  0
  1  2  1  0  0  0
  1 10  1  0  0  0
  2  3  1  0  0  0
  2  4  2  0  0  0
  2  5  1  0  0  0
  3 11  1  0  0  0
  5  6  1  0  0  0
  6  7  1  0  0  0
  6  8  2  0  0  0
  6  9  1  0  0  0
  7 12  1  0  0  0
  9 13  1  0  0  0
M  END
$$$$
