PQN
  CCTOOLS-0919241033

 79 80  0  0  1  0  0  0  0  0999 V2000
    1.3780   -1.4170   -6.2110 C   0  0  0  0  0
    1.8180   -2.4510   -6.6730 O   0  0  0  0  0
   -0.0780   -1.2300   -6.0670 C   0  0  0  0  0
   -1.0130   -2.3310   -6.4970 C   0  0  0  0  0
   -0.5800   -0.0960   -5.5610 C   0  0  0  0  0
    0.3070    1.0020   -5.1370 C   0  0  0  0  0
   -0.1630    2.0260   -4.6840 O   0  0  0  0  0
    1.7730    0.8500   -5.2590 C   0  0  0  0  0
    2.6310    1.8680   -4.8610 C   0  0  0  0  0
    4.0010    1.7030   -4.9920 C   0  0  0  0  0
    4.5200    0.5340   -5.5150 C   0  0  0  0  0
    3.6760   -0.4900   -5.9160 C   0  0  0  0  0
    2.3000   -0.3400   -5.7910 C   0  0  0  0  0
   -2.0730    0.0600   -5.4290 C   0  0  0  0  0
   -2.5140   -0.4440   -4.0790 C   0  0  0  0  0
   -3.2100    0.3300   -3.2850 C   0  0  0  0  0
   -3.6780    1.6790   -3.7680 C   0  0  0  0  0
   -3.5440   -0.1260   -1.8890 C   0  0  0  0  0
   -2.4370    0.3150   -0.9290 C   0  0  0  0  0
   -2.7760   -0.1480    0.4880 C   0  0  0  0  0
   -1.6690    0.2930    1.4470 C   0  0  0  0  0
   -0.3390   -0.3250    1.0120 C   0  0  0  0  0
   -2.0080   -0.1700    2.8650 C   0  0  0  0  0
   -0.9010    0.2710    3.8250 C   0  0  0  0  0
   -1.2400   -0.1920    5.2430 C   0  0  0  0  0
   -0.1330    0.2490    6.2020 C   0  0  0  0  0
    1.1960   -0.3690    5.7670 C   0  0  0  0  0
   -0.4720   -0.2140    7.6200 C   0  0  0  0  0
    0.6340    0.2270    8.5800 C   0  0  0  0  0
    0.2950   -0.2360    9.9980 C   0  0  0  0  0
    1.4020    0.2050   10.9570 C   0  0  0  0  0
    1.0630   -0.2580   12.3750 C   0  0  0  0  0
    2.7320   -0.4130   10.5220 C   0  0  0  0  0
   -0.4340   -3.1710   -6.8810 H   0  0  0  0  0
   -1.6060   -2.6580   -5.6430 H   0  0  0  0  0
   -1.6770   -1.9600   -7.2780 H   0  0  0  0  0
    2.2320    2.7840   -4.4520 H   0  0  0  0  0
    4.6690    2.4940   -4.6830 H   0  0  0  0  0
    5.5890    0.4170   -5.6110 H   0  0  0  0  0
    4.0870   -1.4020   -6.3230 H   0  0  0  0  0
   -2.5690   -0.5120   -6.2120 H   0  0  0  0  0
   -2.3370    1.1130   -5.5270 H   0  0  0  0  0
   -2.2560   -1.4450   -3.7670 H   0  0  0  0  0
   -4.3120    2.1370   -3.0100 H   0  0  0  0  0
   -2.8140    2.3170   -3.9540 H   0  0  0  0  0
   -4.2450    1.5570   -4.6910 H   0  0  0  0  0
   -3.6260   -1.2130   -1.8720 H   0  0  0  0  0
   -4.4910    0.3140   -1.5790 H   0  0  0  0  0
   -2.3550    1.4020   -0.9460 H   0  0  0  0  0
   -1.4900   -0.1250   -1.2390 H   0  0  0  0  0
   -2.8580   -1.2350    0.5040 H   0  0  0  0  0
   -3.7230    0.2920    0.7980 H   0  0  0  0  0
   -1.5870    1.3800    1.4310 H   0  0  0  0  0
   -0.4220   -1.4120    1.0290 H   0  0  0  0  0
   -0.0980    0.0050    0.0020 H   0  0  0  0  0
    0.4480   -0.0100    1.6960 H   0  0  0  0  0
   -2.0900   -1.2570    2.8820 H   0  0  0  0  0
   -2.9550    0.2700    3.1750 H   0  0  0  0  0
   -0.8190    1.3580    3.8080 H   0  0  0  0  0
    0.0450   -0.1690    3.5150 H   0  0  0  0  0
   -1.3220   -1.2790    5.2590 H   0  0  0  0  0
   -2.1870    0.2480    5.5530 H   0  0  0  0  0
   -0.0510    1.3360    6.1860 H   0  0  0  0  0
    1.1130   -1.4560    5.7830 H   0  0  0  0  0
    1.4370   -0.0380    4.7570 H   0  0  0  0  0
    1.9840   -0.0540    6.4500 H   0  0  0  0  0
   -0.5540   -1.3010    7.6370 H   0  0  0  0  0
   -1.4190    0.2260    7.9300 H   0  0  0  0  0
    0.7160    1.3140    8.5630 H   0  0  0  0  0
    1.5810   -0.2130    8.2690 H   0  0  0  0  0
    0.2130   -1.3230   10.0140 H   0  0  0  0  0
   -0.6510    0.2040   10.3080 H   0  0  0  0  0
    1.4840    1.2920   10.9400 H   0  0  0  0  0
    1.8520    0.0560   13.0580 H   0  0  0  0  0
    0.1160    0.1820   12.6850 H   0  0  0  0  0
    0.9810   -1.3450   12.3920 H   0  0  0  0  0
    2.6490   -1.5000   10.5380 H   0  0  0  0  0
    2.9730   -0.0820    9.5110 H   0  0  0  0  0
    3.5200   -0.0980   11.2050 H   0  0  0  0  0
  1  2  2  0  0  0
  1  3  1  0  0  0
  1 13  1  0  0  0
  3  4  1  0  0  0
  3  5  2  0  0  0
  4 34  1  0  0  0
  4 35  1  0  0  0
  4 36  1  0  0  0
  5  6  1  0  0  0
  5 14  1  0  0  0
  6  7  2  0  0  0
  6  8  1  0  0  0
  8  9  2  0  0  0
  8 13  1  0  0  0
  9 10  1  0  0  0
  9 37  1  0  0  0
 10 11  2  0  0  0
 10 38  1  0  0  0
 11 12  1  0  0  0
 11 39  1  0  0  0
 12 13  2  0  0  0
 12 40  1  0  0  0
 14 15  1  0  0  0
 14 41  1  0  0  0
 14 42  1  0  0  0
 15 16  2  0  0  0
 15 43  1  0  0  0
 16 17  1  0  0  0
 16 18  1  0  0  0
 17 44  1  0  0  0
 17 45  1  0  0  0
 17 46  1  0  0  0
 18 19  1  0  0  0
 18 47  1  0  0  0
 18 48  1  0  0  0
 19 20  1  0  0  0
 19 49  1  0  0  0
 19 50  1  0  0  0
 20 21  1  0  0  0
 20 51  1  0  0  0
 20 52  1  0  0  0
 21 22  1  0  0  0
 21 23  1  0  0  0
 21 53  1  0  0  0
 22 54  1  0  0  0
 22 55  1  0  0  0
 22 56  1  0  0  0
 23 24  1  0  0  0
 23 57  1  0  0  0
 23 58  1  0  0  0
 24 25  1  0  0  0
 24 59  1  0  0  0
 24 60  1  0  0  0
 25 26  1  0  0  0
 25 61  1  0  0  0
 25 62  1  0  0  0
 26 27  1  0  0  0
 26 28  1  0  0  0
 26 63  1  0  0  0
 27 64  1  0  0  0
 27 65  1  0  0  0
 27 66  1  0  0  0
 28 29  1  0  0  0
 28 67  1  0  0  0
 28 68  1  0  0  0
 29 30  1  0  0  0
 29 69  1  0  0  0
 29 70  1  0  0  0
 30 31  1  0  0  0
 30 71  1  0  0  0
 30 72  1  0  0  0
 31 32  1  0  0  0
 31 33  1  0  0  0
 31 73  1  0  0  0
 32 74  1  0  0  0
 32 75  1  0  0  0
 32 76  1  0  0  0
 33 77  1  0  0  0
 33 78  1  0  0  0
 33 79  1  0  0  0
M  END
$$$$
