PRP
  CCTOOLS-0919241033

 35 35  0  0  1  0  0  0  0  0999 V2000
    1.4140   -0.7540    0.2180 C   0  0  0  0  0
    2.8200   -0.6090   -0.4040 C   0  0  0  0  0
    2.5620    0.0950   -1.7540 C   0  0  0  0  0
    1.0300    0.2910   -1.7920 C   0  0  0  0  0
    0.4940    0.0870   -3.2100 C   0  0  0  0  0
    1.1470    0.3340    1.1040 O   0  0  0  0  0
    3.6580    0.1950    0.4280 O   0  0  0  0  0
    3.2300    1.3570   -1.7960 O   0  0  0  0  0
    0.5080   -0.7250   -0.9050 O   0  0  0  0  0
   -0.9290    0.2030   -3.2020 O   0  0  0  0  0
   -1.4230   -0.0210   -4.7180 P   0  0  0  0  0
   -1.0070   -1.3640   -5.1790 O   0  0  0  0  0
   -3.0270    0.0960   -4.7840 O   0  0  0  0  0
   -0.7640    1.0990   -5.6680 O   0  0  0  0  0
    0.1570   -0.2250    2.2440 P   0  0  0  0  0
   -1.0920   -0.7110    1.6170 O   0  0  0  0  0
    0.8710   -1.4370    3.0270 O   0  0  0  0  0
   -0.1860    0.9550    3.2830 O   0  0  0  0  0
   -1.1750    0.3290    4.3890 P   0  0  0  0  0
   -0.4980   -0.7930    5.0750 O   0  0  0  0  0
   -1.5620    1.4610    5.4650 O   0  0  0  0  0
   -2.5120   -0.2080    3.6710 O   0  0  0  0  0
    1.3300   -1.7030    0.7480 H   0  0  0  0  0
    3.2700   -1.5890   -0.5640 H   0  0  0  0  0
    2.8860   -0.5350   -2.5820 H   0  0  0  0  0
    0.7670    1.2840   -1.4260 H   0  0  0  0  0
    0.9160    0.8450   -3.8700 H   0  0  0  0  0
    0.7760   -0.9020   -3.5660 H   0  0  0  0  0
    3.7850   -0.2920    1.2530 H   0  0  0  0  0
    4.1770    1.1740   -1.7400 H   0  0  0  0  0
   -3.2800   -0.0440   -5.7060 H   0  0  0  0  0
   -1.0590    1.9570   -5.3350 H   0  0  0  0  0
    1.6790   -1.0790    3.4200 H   0  0  0  0  0
   -2.1530    1.0460    6.1080 H   0  0  0  0  0
   -2.9210    0.5520    3.2360 H   0  0  0  0  0
  1  2  1  0  0  0
  1  6  1  0  0  0
  1  9  1  0  0  0
  1 23  1  0  0  0
  2  3  1  0  0  0
  2  7  1  0  0  0
  2 24  1  0  0  0
  3  4  1  0  0  0
  3  8  1  0  0  0
  3 25  1  0  0  0
  4  5  1  0  0  0
  4  9  1  0  0  0
  4 26  1  0  0  0
  5 10  1  0  0  0
  5 27  1  0  0  0
  5 28  1  0  0  0
  6 15  1  0  0  0
  7 29  1  0  0  0
  8 30  1  0  0  0
 10 11  1  0  0  0
 11 12  2  0  0  0
 11 13  1  0  0  0
 11 14  1  0  0  0
 13 31  1  0  0  0
 14 32  1  0  0  0
 15 16  2  0  0  0
 15 17  1  0  0  0
 15 18  1  0  0  0
 17 33  1  0  0  0
 18 19  1  0  0  0
 19 20  2  0  0  0
 19 21  1  0  0  0
 19 22  1  0  0  0
 21 34  1  0  0  0
 22 35  1  0  0  0
M  END
$$$$
