PRZ
  CCTOOLS-0919241033

 26 26  0  0  0  0  0  0  0  0999 V2000
   -1.6850   -0.4670    0.2020 N   0  0  0  0  0
   -0.3820   -0.4760   -0.0050 C   0  0  0  0  0
    0.4860   -0.1080    1.0160 C   0  0  0  0  0
    0.0010    0.2610    2.1930 N   0  0  0  0  0
   -1.3050    0.2730    2.3930 C   0  0  0  0  0
   -2.1660   -0.0970    1.3770 C   0  0  0  0  0
    0.1640   -0.8970   -1.3450 C   0  0  0  0  0
    0.2860    0.3270   -2.2530 C   0  0  0  0  0
    0.8420   -0.0990   -3.6140 C   0  0  0  0  0
   -1.0920    0.9620   -2.4420 C   0  0  0  0  0
    1.8260   -0.1220    0.8070 O   0  0  0  0  0
    2.4380    0.3060    2.0250 C   0  0  0  0  0
   -1.7010    0.5740    3.3520 H   0  0  0  0  0
   -3.2330   -0.0860    1.5440 H   0  0  0  0  0
    1.1470   -1.3490   -1.2100 H   0  0  0  0  0
   -0.5090   -1.6220   -1.8010 H   0  0  0  0  0
    0.9600    1.0520   -1.7970 H   0  0  0  0  0
    0.9290    0.7720   -4.2610 H   0  0  0  0  0
    1.8240   -0.5510   -3.4790 H   0  0  0  0  0
    0.1670   -0.8240   -4.0700 H   0  0  0  0  0
   -1.7660    0.2370   -2.8980 H   0  0  0  0  0
   -1.4880    1.2660   -1.4730 H   0  0  0  0  0
   -1.0050    1.8340   -3.0890 H   0  0  0  0  0
    3.5220    0.3110    1.9050 H   0  0  0  0  0
    2.0950    1.3110    2.2700 H   0  0  0  0  0
    2.1650   -0.3770    2.8290 H   0  0  0  0  0
  1  2  2  0  0  0
  1  6  1  0  0  0
  2  3  1  0  0  0
  2  7  1  0  0  0
  3  4  2  0  0  0
  3 11  1  0  0  0
  4  5  1  0  0  0
  5  6  2  0  0  0
  5 13  1  0  0  0
  6 14  1  0  0  0
  7  8  1  0  0  0
  7 15  1  0  0  0
  7 16  1  0  0  0
  8  9  1  0  0  0
  8 10  1  0  0  0
  8 17  1  0  0  0
  9 18  1  0  0  0
  9 19  1  0  0  0
  9 20  1  0  0  0
 10 21  1  0  0  0
 10 22  1  0  0  0
 10 23  1  0  0  0
 11 12  1  0  0  0
 12 24  1  0  0  0
 12 25  1  0  0  0
 12 26  1  0  0  0
M  END
$$$$
