PS9
  CCTOOLS-1004241122

  8  8  0  0  0  0  0  0  0  0999 V2000
    1.9170    0.0090    1.0200 S   0  0  0  0  0
    1.6600   -1.3160   -0.5490 S   0  0  0  0  0
    0.0210   -2.3780    0.0320 S   0  0  0  0  0
   -1.6370   -1.3440   -0.5490 S   0  0  0  0  0
   -1.9170   -0.0240    1.0200 S   0  0  0  0  0
   -1.6340    1.7860    0.0670 S   0  0  0  0  0
   -0.0130    1.4530   -1.1090 S   0  0  0  0  0
    1.6030    1.8140    0.0680 S   0  0  0  0  0
  1  2  1  0  0  0
  2  3  1  0  0  0
  3  4  1  0  0  0
  5  4  1  0  0  0
  6  5  1  0  0  0
  7  6  1  0  0  0
  8  1  1  0  0  0
  8  7  1  0  0  0
M  END
$$$$
