PTG
  CCTOOLS-1004241122

 51 51  0  0  1  0  0  0  0  0999 V2000
    9.5910   -2.3740    0.7010 C   0  0  0  0  0
    8.0730   -2.4150    0.8910 C   0  0  0  0  0
    7.4030   -1.5400   -0.1700 C   0  0  0  0  0
    5.8850   -1.5820    0.0200 C   0  0  0  0  0
    5.2150   -0.7060   -1.0410 C   0  0  0  0  0
    3.7200   -0.7470   -0.8550 C   0  0  0  0  0
    3.0340    0.3890   -0.7070 C   0  0  0  0  0
    1.5840    0.3490   -0.5260 C   0  0  0  0  0
    0.8880    1.5010   -0.3760 C   0  0  0  0  0
    1.4180    2.8680   -0.3700 C   0  0  0  0  0
    2.5880    3.1830   -0.5010 O   0  0  0  0  0
    0.2940    3.7920   -0.1770 C   0  0  0  0  0
   -0.8530    3.1410   -0.0670 C   0  0  0  0  0
   -0.6050    1.6570   -0.1850 C   0  0  0  0  0
   -1.0510    0.9480    1.0950 C   0  0  0  0  0
   -2.5520    1.0070    1.2060 C   0  0  0  0  0
   -3.2430   -0.0970    1.3480 C   0  0  0  0  0
   -4.7450   -0.0370    1.4590 C   0  0  0  0  0
   -5.3710   -0.9360    0.3910 C   0  0  0  0  0
   -6.8960   -0.8750    0.5040 C   0  0  0  0  0
   -7.5130   -1.7600   -0.5490 C   0  0  0  0  0
   -6.8060   -2.3750   -1.3110 O   0  0  0  0  0
   -8.8480   -1.8640   -0.6400 O   0  0  0  0  0
    9.9420   -1.3470    0.8030 H   0  0  0  0  0
   10.0690   -2.9970    1.4570 H   0  0  0  0  0
    9.8440   -2.7480   -0.2910 H   0  0  0  0  0
    7.7220   -3.4420    0.7890 H   0  0  0  0  0
    7.8210   -2.0420    1.8830 H   0  0  0  0  0
    7.7540   -0.5130   -0.0680 H   0  0  0  0  0
    7.6550   -1.9140   -1.1620 H   0  0  0  0  0
    5.5340   -2.6090   -0.0820 H   0  0  0  0  0
    5.6330   -1.2080    1.0120 H   0  0  0  0  0
    5.5660    0.3200   -0.9400 H   0  0  0  0  0
    5.4670   -1.0800   -2.0330 H   0  0  0  0  0
    3.2030   -1.6960   -0.8410 H   0  0  0  0  0
    3.5510    1.3370   -0.7210 H   0  0  0  0  0
    1.0670   -0.5990   -0.5120 H   0  0  0  0  0
    0.3910    4.8670   -0.1280 H   0  0  0  0  0
   -1.8190    3.6010    0.0840 H   0  0  0  0  0
   -1.1380    1.2520   -1.0450 H   0  0  0  0  0
   -0.7290   -0.0930    1.0640 H   0  0  0  0  0
   -0.6030    1.4400    1.9580 H   0  0  0  0  0
   -3.0590    1.9600    1.1690 H   0  0  0  0  0
   -2.7360   -1.0500    1.3860 H   0  0  0  0  0
   -5.0500   -0.3810    2.4480 H   0  0  0  0  0
   -5.0790    0.9900    1.3130 H   0  0  0  0  0
   -5.0660   -0.5920   -0.5970 H   0  0  0  0  0
   -5.0360   -1.9620    0.5380 H   0  0  0  0  0
   -7.2010   -1.2190    1.4920 H   0  0  0  0  0
   -7.2300    0.1520    0.3570 H   0  0  0  0  0
   -9.1970   -2.4430   -1.3300 H   0  0  0  0  0
  1  2  1  0  0  0
  1 24  1  0  0  0
  1 25  1  0  0  0
  1 26  1  0  0  0
  2  3  1  0  0  0
  2 27  1  0  0  0
  2 28  1  0  0  0
  3  4  1  0  0  0
  3 29  1  0  0  0
  3 30  1  0  0  0
  4  5  1  0  0  0
  4 31  1  0  0  0
  4 32  1  0  0  0
  5  6  1  0  0  0
  5 33  1  0  0  0
  5 34  1  0  0  0
  6  7  2  0  0  0
  6 35  1  0  0  0
  7  8  1  0  0  0
  7 36  1  0  0  0
  8  9  2  0  0  0
  8 37  1  0  0  0
  9 10  1  0  0  0
  9 14  1  0  0  0
 10 11  2  0  0  0
 12 13  2  0  0  0
 12 38  1  0  0  0
 12 10  1  0  0  0
 13 14  1  0  0  0
 13 39  1  0  0  0
 14 15  1  0  0  0
 14 40  1  0  0  0
 15 16  1  0  0  0
 15 41  1  0  0  0
 15 42  1  0  0  0
 16 17  2  0  0  0
 16 43  1  0  0  0
 17 18  1  0  0  0
 17 44  1  0  0  0
 18 19  1  0  0  0
 18 45  1  0  0  0
 18 46  1  0  0  0
 19 20  1  0  0  0
 19 47  1  0  0  0
 19 48  1  0  0  0
 20 21  1  0  0  0
 20 49  1  0  0  0
 20 50  1  0  0  0
 21 22  2  0  0  0
 21 23  1  0  0  0
 23 51  1  0  0  0
M  END
$$$$
