PTH
  CCTOOLS-1004241122

 33 33  0  0  1  0  0  0  0  0999 V2000
    1.6800    0.6850    2.8150 N   0  0  0  0  0
    0.3110    0.4520    3.2950 C   0  0  0  0  0
    0.3010    0.4520    4.8020 C   0  0  0  0  0
    1.2780    0.0890    5.4130 O   0  0  0  0  0
   -0.7930    0.8560    5.4660 O   0  0  0  0  0
   -0.1850   -0.9000    2.7820 C   0  0  0  0  0
   -0.1750   -0.9000    1.2750 C   0  0  0  0  0
   -1.2950   -0.4900    0.5770 C   0  0  0  0  0
    0.9530   -1.3160    0.5920 C   0  0  0  0  0
   -1.2870   -0.4840   -0.8040 C   0  0  0  0  0
    0.9650   -1.3170   -0.7880 C   0  0  0  0  0
   -0.1560   -0.9000   -1.4910 C   0  0  0  0  0
   -2.5060   -0.0310   -1.5640 C   0  0  0  0  0
   -0.1460   -0.9000   -2.8500 O   0  0  0  0  0
    0.7310    0.3680   -3.3090 P   0  0  0  0  0
    2.0790    0.2800   -2.7050 O   0  0  0  0  0
    0.8610    0.3780   -4.9140 O   0  0  0  0  0
    0.0110    1.7230   -2.8210 O   0  0  0  0  0
   -3.5300    0.3450   -0.6410 O   0  0  0  0  0
    1.6580    0.5740    1.8120 H   0  0  0  0  0
    2.2460   -0.0660    3.1780 H   0  0  0  0  0
   -0.3420    1.2430    2.9270 H   0  0  0  0  0
   -0.8000    0.8560    6.4330 H   0  0  0  0  0
    0.4680   -1.6910    3.1500 H   0  0  0  0  0
   -1.2010   -1.0730    3.1380 H   0  0  0  0  0
   -2.1760   -0.1660    1.1120 H   0  0  0  0  0
    1.8250   -1.6400    1.1400 H   0  0  0  0  0
    1.8470   -1.6410   -1.3210 H   0  0  0  0  0
   -2.2490    0.8230   -2.1890 H   0  0  0  0  0
   -2.8660   -0.8450   -2.1930 H   0  0  0  0  0
    1.3920    1.1520   -5.1460 H   0  0  0  0  0
   -0.8610    1.7410   -3.2360 H   0  0  0  0  0
   -4.2910    0.6270   -1.1670 H   0  0  0  0  0
  1  2  1  0  0  0
  1 20  1  0  0  0
  1 21  1  0  0  0
  2  3  1  0  0  0
  2  6  1  0  0  0
  2 22  1  0  0  0
  3  4  2  0  0  0
  3  5  1  0  0  0
  5 23  1  0  0  0
  6  7  1  0  0  0
  6 24  1  0  0  0
  6 25  1  0  0  0
  7  8  2  0  0  0
  7  9  1  0  0  0
  8 10  1  0  0  0
  8 26  1  0  0  0
  9 11  2  0  0  0
  9 27  1  0  0  0
 10 12  2  0  0  0
 10 13  1  0  0  0
 11 12  1  0  0  0
 11 28  1  0  0  0
 12 14  1  0  0  0
 13 19  1  0  0  0
 13 29  1  0  0  0
 13 30  1  0  0  0
 14 15  1  0  0  0
 15 16  2  0  0  0
 15 17  1  0  0  0
 15 18  1  0  0  0
 17 31  1  0  0  0
 18 32  1  0  0  0
 19 33  1  0  0  0
M  END
$$$$
