PTI
  CCTOOLS-0919241033

 64 68  0  0  1  0  0  0  0  0999 V2000
   -0.6390    0.0460    7.0130 C   0  0  0  0  0
    0.5240   -0.5400    7.8150 C   0  0  0  0  0
    1.7740    0.3150    7.5880 C   0  0  0  0  0
   -0.3170    0.0220    5.5820 N   0  0  0  0  0
    2.0510    0.4010    6.0840 C   0  0  0  0  0
    0.8080    0.9380    5.3730 C   0  0  0  0  0
   -1.4700    0.6030    4.8810 C   0  0  0  0  0
   -1.2010    0.6100    3.3750 C   0  0  0  0  0
   -0.9930   -0.7290    2.9220 O   0  0  0  0  0
   -0.7600   -0.6600    1.5850 C   0  0  0  0  0
   -0.5210   -1.8190    0.8610 C   0  0  0  0  0
   -0.2830   -1.7460   -0.4970 C   0  0  0  0  0
   -0.2840   -0.5200   -1.1350 C   0  0  0  0  0
   -0.5170    0.6360   -0.4150 C   0  0  0  0  0
   -0.7600    0.5680    0.9420 C   0  0  0  0  0
   -0.0260   -0.4440   -2.6180 C   0  0  0  0  0
   -0.7640    0.6900   -3.1780 N   0  0  0  0  0
   -0.4110    0.7600   -4.6030 C   0  0  0  0  0
    1.0040    1.3250   -4.7310 C   0  0  0  0  0
    1.9390    0.5390   -3.8460 C   0  0  0  0  0
    1.4520   -0.2870   -2.8560 C   0  0  0  0  0
    2.3350   -0.9970   -2.0550 C   0  0  0  0  0
    3.6960   -0.8810   -2.2460 C   0  0  0  0  0
    4.1870   -0.0500   -3.2420 C   0  0  0  0  0
    3.3040    0.6640   -4.0370 C   0  0  0  0  0
    5.5270    0.0670   -3.4350 O   0  0  0  0  0
   -2.1190    0.3560   -3.1160 C   0  0  0  0  0
   -3.0060    1.1700   -2.4230 C   0  0  0  0  0
   -4.3450    0.8380   -2.3640 C   0  0  0  0  0
   -4.8040   -0.3040   -2.9940 C   0  0  0  0  0
   -3.9240   -1.1170   -3.6850 C   0  0  0  0  0
   -2.5840   -0.7870   -3.7520 C   0  0  0  0  0
   -0.8140    1.0740    7.3290 H   0  0  0  0  0
   -1.5370   -0.5450    7.1930 H   0  0  0  0  0
    0.2710   -0.5420    8.8750 H   0  0  0  0  0
    0.7160   -1.5600    7.4840 H   0  0  0  0  0
    1.6080    1.3160    7.9860 H   0  0  0  0  0
    2.6260   -0.1420    8.0910 H   0  0  0  0  0
    2.8910    1.0730    5.9070 H   0  0  0  0  0
    2.2900   -0.5900    5.7010 H   0  0  0  0  0
    1.0100    1.0260    4.3050 H   0  0  0  0  0
    0.5560    1.9200    5.7750 H   0  0  0  0  0
   -1.6280    1.6250    5.2260 H   0  0  0  0  0
   -2.3590    0.0080    5.0880 H   0  0  0  0  0
   -0.3110    1.2050    3.1680 H   0  0  0  0  0
   -2.0560    1.0410    2.8550 H   0  0  0  0  0
   -0.5210   -2.7770    1.3590 H   0  0  0  0  0
   -0.0970   -2.6480   -1.0610 H   0  0  0  0  0
   -0.5160    1.5930   -0.9160 H   0  0  0  0  0
   -0.9460    1.4720    1.5040 H   0  0  0  0  0
   -0.3700   -1.3640   -3.0900 H   0  0  0  0  0
   -0.4470   -0.2370   -5.0380 H   0  0  0  0  0
   -1.1140    1.4130   -5.1210 H   0  0  0  0  0
    1.3330    1.2490   -5.7670 H   0  0  0  0  0
    1.0070    2.3710   -4.4240 H   0  0  0  0  0
    1.9550   -1.6450   -1.2790 H   0  0  0  0  0
    4.3790   -1.4360   -1.6200 H   0  0  0  0  0
    3.6830    1.3150   -4.8110 H   0  0  0  0  0
    5.7790   -0.6130   -4.0740 H   0  0  0  0  0
   -2.6480    2.0630   -1.9310 H   0  0  0  0  0
   -5.0350    1.4710   -1.8260 H   0  0  0  0  0
   -5.8510   -0.5620   -2.9460 H   0  0  0  0  0
   -4.2850   -2.0080   -4.1760 H   0  0  0  0  0
   -1.8980   -1.4230   -4.2920 H   0  0  0  0  0
  1  2  1  0  0  0
  1  4  1  0  0  0
  1 33  1  0  0  0
  1 34  1  0  0  0
  2  3  1  0  0  0
  2 35  1  0  0  0
  2 36  1  0  0  0
  3  5  1  0  0  0
  3 37  1  0  0  0
  3 38  1  0  0  0
  4  6  1  0  0  0
  4  7  1  0  0  0
  5  6  1  0  0  0
  5 39  1  0  0  0
  5 40  1  0  0  0
  6 41  1  0  0  0
  6 42  1  0  0  0
  7  8  1  0  0  0
  7 43  1  0  0  0
  7 44  1  0  0  0
  8  9  1  0  0  0
  8 45  1  0  0  0
  8 46  1  0  0  0
  9 10  1  0  0  0
 10 11  2  0  0  0
 10 15  1  0  0  0
 11 12  1  0  0  0
 11 47  1  0  0  0
 12 13  2  0  0  0
 12 48  1  0  0  0
 13 14  1  0  0  0
 13 16  1  0  0  0
 14 15  2  0  0  0
 14 49  1  0  0  0
 15 50  1  0  0  0
 16 17  1  0  0  0
 16 21  1  0  0  0
 16 51  1  0  0  0
 17 18  1  0  0  0
 17 27  1  0  0  0
 18 19  1  0  0  0
 18 52  1  0  0  0
 18 53  1  0  0  0
 19 20  1  0  0  0
 19 54  1  0  0  0
 19 55  1  0  0  0
 20 21  2  0  0  0
 20 25  1  0  0  0
 21 22  1  0  0  0
 22 23  2  0  0  0
 22 56  1  0  0  0
 23 24  1  0  0  0
 23 57  1  0  0  0
 24 25  2  0  0  0
 24 26  1  0  0  0
 25 58  1  0  0  0
 26 59  1  0  0  0
 27 28  2  0  0  0
 27 32  1  0  0  0
 28 29  1  0  0  0
 28 60  1  0  0  0
 29 30  2  0  0  0
 29 61  1  0  0  0
 30 31  1  0  0  0
 30 62  1  0  0  0
 31 32  2  0  0  0
 31 63  1  0  0  0
 32 64  1  0  0  0
M  END
$$$$
