PTR
  CCTOOLS-0207251045

 29 29  0  0  1  0  0  0  0  0999 V2000
    1.2980    0.9750    3.3020 N   0  0  0  0  0
   -0.0360    0.3990    3.5120 C   0  0  0  0  0
   -0.1480   -0.1060    4.9280 C   0  0  0  0  0
    0.8330   -0.5070    5.5050 O   0  0  0  0  0
   -1.3390   -0.1100    5.5460 O   0  0  0  0  0
   -0.2500   -0.7600    2.5380 C   0  0  0  0  0
   -0.1380   -0.2540    1.1230 C   0  0  0  0  0
    1.0890   -0.2500    0.4870 C   0  0  0  0  0
   -1.2640    0.1980    0.4610 C   0  0  0  0  0
    1.1940    0.2120   -0.8100 C   0  0  0  0  0
   -1.1630    0.6680   -0.8340 C   0  0  0  0  0
    0.0670    0.6730   -1.4740 C   0  0  0  0  0
    0.1680    1.1290   -2.7500 O   0  0  0  0  0
   -0.0650   -0.1360   -3.7170 P   0  0  0  0  0
   -1.4090   -0.7050   -3.4670 O   0  0  0  0  0
    0.0400    0.3340   -5.2530 O   0  0  0  0  0
    1.0530   -1.2530   -3.4190 O   0  0  0  0  0
    1.9630    0.2350    3.4730 H   0  0  0  0  0
    1.3650    1.2040    2.3220 H   0  0  0  0  0
   -0.7930    1.1640    3.3390 H   0  0  0  0  0
   -1.4110   -0.4350    6.4540 H   0  0  0  0  0
    0.5060   -1.5250    2.7110 H   0  0  0  0  0
   -1.2410   -1.1870    2.6940 H   0  0  0  0  0
    1.9660   -0.6090    1.0040 H   0  0  0  0  0
   -2.2220    0.1940    0.9590 H   0  0  0  0  0
    2.1540    0.2160   -1.3060 H   0  0  0  0  0
   -2.0410    1.0260   -1.3490 H   0  0  0  0  0
   -0.1050   -0.4510   -5.7970 H   0  0  0  0  0
    1.9110   -0.8430   -3.5930 H   0  0  0  0  0
  1  2  1  0  0  0
  1 18  1  0  0  0
  1 19  1  0  0  0
  2  3  1  0  0  0
  2  6  1  0  0  0
  2 20  1  0  0  0
  3  4  2  0  0  0
  3  5  1  0  0  0
  5 21  1  0  0  0
  6  7  1  0  0  0
  6 22  1  0  0  0
  6 23  1  0  0  0
  7  8  2  0  0  0
  7  9  1  0  0  0
  8 10  1  0  0  0
  8 24  1  0  0  0
  9 11  2  0  0  0
  9 25  1  0  0  0
 10 12  2  0  0  0
 10 26  1  0  0  0
 11 12  1  0  0  0
 11 27  1  0  0  0
 12 13  1  0  0  0
 13 14  1  0  0  0
 14 15  2  0  0  0
 14 16  1  0  0  0
 14 17  1  0  0  0
 16 28  1  0  0  0
 17 29  1  0  0  0
M  END
$$$$
