PTY
  CCTOOLS-1004241122

130129  0  0  1  0  0  0  0  0999 V2000
    3.8240    1.0370   -3.9740 C   0  0  0  0  0
   10.1580   -3.0270   -2.5650 C   0  0  0  0  0
    9.6070   -1.6140   -2.3610 C   0  0  0  0  0
    2.3900    1.1650   -4.1620 O   0  0  0  0  0
    5.7020    1.3160   -2.3500 C   0  0  0  0  0
    4.1910    1.4510   -2.5480 C   0  0  0  0  0
    3.5000    0.5930   -1.6020 O   0  0  0  0  0
    3.1580    1.0650   -0.3930 C   0  0  0  0  0
    3.4240    2.2050   -0.0920 O   0  0  0  0  0
    2.4410    0.1750    0.5880 C   0  0  0  0  0
    2.1700    0.9520    1.8780 C   0  0  0  0  0
    1.4420    0.0470    2.8740 C   0  0  0  0  0
    1.1710    0.8250    4.1640 C   0  0  0  0  0
    0.4430   -0.0790    5.1610 C   0  0  0  0  0
    0.1720    0.6970    6.4510 C   0  0  0  0  0
   -0.5550   -0.2060    7.4470 C   0  0  0  0  0
   -0.8260    0.5700    8.7370 C   0  0  0  0  0
   -1.5540   -0.3330    9.7340 C   0  0  0  0  0
   -1.8260    0.4430   11.0240 C   0  0  0  0  0
   -2.5530   -0.4610   12.0200 C   0  0  0  0  0
   -2.8250    0.3160   13.3100 C   0  0  0  0  0
   -3.5520   -0.5880   14.3070 C   0  0  0  0  0
   -3.8240    0.1880   15.5970 C   0  0  0  0  0
   -4.5510   -0.7150   16.5930 C   0  0  0  0  0
   -4.8230    0.0610   17.8830 C   0  0  0  0  0
   -5.5500   -0.8420   18.8800 C   0  0  0  0  0
   -5.8220   -0.0650   20.1700 C   0  0  0  0  0
   -6.5490   -0.9690   21.1660 C   0  0  0  0  0
    1.8380    0.8540   -5.3450 C   0  0  0  0  0
    0.3490    0.9860   -5.5400 C   0  0  0  0  0
    2.5340    0.4670   -6.2540 O   0  0  0  0  0
   -0.0170    0.5720   -6.9660 C   0  0  0  0  0
   -1.5280    0.7070   -7.1640 C   0  0  0  0  0
   -1.8940    0.2920   -8.5900 C   0  0  0  0  0
   -3.4060    0.4270   -8.7880 C   0  0  0  0  0
   -3.7720    0.0120  -10.2150 C   0  0  0  0  0
   -5.2830    0.1470  -10.4120 C   0  0  0  0  0
   -5.6500   -0.2660  -11.8390 C   0  0  0  0  0
   -7.1610   -0.1310  -12.0370 C   0  0  0  0  0
   -7.5280   -0.5460  -13.4630 C   0  0  0  0  0
   -9.0390   -0.4110  -13.6610 C   0  0  0  0  0
   -9.4060   -0.8260  -15.0870 C   0  0  0  0  0
  -10.9170   -0.6910  -15.2850 C   0  0  0  0  0
  -11.2840   -1.1050  -16.7110 C   0  0  0  0  0
    7.6840   -0.1090   -2.3430 P   0  0  0  0  0
    8.1940   -1.6190   -2.5730 O   0  0  0  0  0
    8.0360    0.3530   -0.8420 O   0  0  0  0  0
    8.3570    0.7900   -3.3070 O   0  0  0  0  0
    6.0910   -0.0400   -2.5670 O   0  0  0  0  0
    9.8690   -3.4730   -3.9350 N   0  0  0  0  0
    4.3420    1.6810   -4.6840 H   0  0  0  0  0
    4.1210    0.0010   -4.1390 H   0  0  0  0  0
   11.2360   -3.0240   -2.4040 H   0  0  0  0  0
    9.6870   -3.7070   -1.8550 H   0  0  0  0  0
   10.0790   -0.9350   -3.0710 H   0  0  0  0  0
    9.8220   -1.2840   -1.3450 H   0  0  0  0  0
    6.2200    1.9610   -3.0600 H   0  0  0  0  0
    5.9630    1.6120   -1.3340 H   0  0  0  0  0
    3.8940    2.4870   -2.3830 H   0  0  0  0  0
    3.0620   -0.6930    0.8110 H   0  0  0  0  0
    1.4960   -0.1540    0.1570 H   0  0  0  0  0
    1.5490    1.8200    1.6550 H   0  0  0  0  0
    3.1150    1.2820    2.3090 H   0  0  0  0  0
    2.0630   -0.8200    3.0970 H   0  0  0  0  0
    0.4970   -0.2810    2.4430 H   0  0  0  0  0
    0.5500    1.6930    3.9410 H   0  0  0  0  0
    2.1160    1.1540    4.5950 H   0  0  0  0  0
    1.0640   -0.9470    5.3840 H   0  0  0  0  0
   -0.5010   -0.4090    4.7300 H   0  0  0  0  0
   -0.4480    1.5660    6.2280 H   0  0  0  0  0
    1.1170    1.0270    6.8820 H   0  0  0  0  0
    0.0640   -1.0740    7.6700 H   0  0  0  0  0
   -1.5000   -0.5360    7.0160 H   0  0  0  0  0
   -1.4470    1.4380    8.5140 H   0  0  0  0  0
    0.1180    0.9000    9.1680 H   0  0  0  0  0
   -0.9340   -1.2020    9.9570 H   0  0  0  0  0
   -2.4990   -0.6630    9.3030 H   0  0  0  0  0
   -2.4460    1.3110   10.8010 H   0  0  0  0  0
   -0.8800    0.7730   11.4550 H   0  0  0  0  0
   -1.9330   -1.3290   12.2430 H   0  0  0  0  0
   -3.4980   -0.7900   11.5890 H   0  0  0  0  0
   -3.4450    1.1840   13.0870 H   0  0  0  0  0
   -1.8790    0.6450   13.7410 H   0  0  0  0  0
   -2.9320   -1.4560   14.5300 H   0  0  0  0  0
   -4.4970   -0.9180   13.8760 H   0  0  0  0  0
   -4.4440    1.0570   15.3740 H   0  0  0  0  0
   -2.8790    0.5180   16.0280 H   0  0  0  0  0
   -3.9310   -1.5830   16.8160 H   0  0  0  0  0
   -5.4960   -1.0450   16.1620 H   0  0  0  0  0
   -5.4430    0.9290   17.6600 H   0  0  0  0  0
   -3.8780    0.3910   18.3140 H   0  0  0  0  0
   -4.9300   -1.7100   19.1030 H   0  0  0  0  0
   -6.4950   -1.1720   18.4490 H   0  0  0  0  0
   -6.4420    0.8020   19.9470 H   0  0  0  0  0
   -4.8770    0.2640   20.6010 H   0  0  0  0  0
   -6.7430   -0.4160   22.0850 H   0  0  0  0  0
   -7.4940   -1.2990   20.7350 H   0  0  0  0  0
   -5.9290   -1.8380   21.3890 H   0  0  0  0  0
   -0.1680    0.3420   -4.8300 H   0  0  0  0  0
    0.0520    2.0220   -5.3750 H   0  0  0  0  0
    0.5010    1.2160   -7.6760 H   0  0  0  0  0
    0.2800   -0.4630   -7.1310 H   0  0  0  0  0
   -2.0460    0.0620   -6.4540 H   0  0  0  0  0
   -1.8250    1.7420   -6.9990 H   0  0  0  0  0
   -1.3760    0.9360   -9.3010 H   0  0  0  0  0
   -1.5970   -0.7430   -8.7560 H   0  0  0  0  0
   -3.9240   -0.2160   -8.0780 H   0  0  0  0  0
   -3.7030    1.4630   -8.6230 H   0  0  0  0  0
   -3.2540    0.6570  -10.9250 H   0  0  0  0  0
   -3.4750   -1.0220  -10.3800 H   0  0  0  0  0
   -5.8020   -0.4960   -9.7020 H   0  0  0  0  0
   -5.5800    1.1830  -10.2470 H   0  0  0  0  0
   -5.1320    0.3770  -12.5490 H   0  0  0  0  0
   -5.3530   -1.3020  -12.0040 H   0  0  0  0  0
   -7.6800   -0.7760  -11.3260 H   0  0  0  0  0
   -7.4580    0.9030  -11.8710 H   0  0  0  0  0
   -7.0100    0.0970  -14.1730 H   0  0  0  0  0
   -7.2310   -1.5820  -13.6280 H   0  0  0  0  0
   -9.5570   -1.0550  -12.9510 H   0  0  0  0  0
   -9.3360    0.6240  -13.4960 H   0  0  0  0  0
   -8.8870   -0.1810  -15.7970 H   0  0  0  0  0
   -9.1090   -1.8610  -15.2520 H   0  0  0  0  0
  -11.4350   -1.3350  -14.5750 H   0  0  0  0  0
  -11.2140    0.3440  -15.1200 H   0  0  0  0  0
  -12.3600   -1.0090  -16.8520 H   0  0  0  0  0
  -10.7650   -0.4610  -17.4210 H   0  0  0  0  0
  -10.9860   -2.1410  -16.8760 H   0  0  0  0  0
    7.5800   -0.2560   -0.2470 H   0  0  0  0  0
   10.2480   -4.4030   -4.0230 H   0  0  0  0  0
    8.8670   -3.5600   -4.0060 H   0  0  0  0  0
  1  4  1  0  0  0
  1  6  1  0  0  0
  1 51  1  0  0  0
  1 52  1  0  0  0
  2  3  1  0  0  0
  2 50  1  0  0  0
  2 53  1  0  0  0
  2 54  1  0  0  0
  3 46  1  0  0  0
  3 55  1  0  0  0
  3 56  1  0  0  0
  4 29  1  0  0  0
  5  6  1  0  0  0
  5 49  1  0  0  0
  5 57  1  0  0  0
  5 58  1  0  0  0
  6  7  1  0  0  0
  6 59  1  0  0  0
  7  8  1  0  0  0
  8  9  2  0  0  0
  8 10  1  0  0  0
 10 11  1  0  0  0
 10 60  1  0  0  0
 10 61  1  0  0  0
 11 12  1  0  0  0
 11 62  1  0  0  0
 11 63  1  0  0  0
 12 13  1  0  0  0
 12 64  1  0  0  0
 12 65  1  0  0  0
 13 14  1  0  0  0
 13 66  1  0  0  0
 13 67  1  0  0  0
 14 15  1  0  0  0
 14 68  1  0  0  0
 14 69  1  0  0  0
 15 16  1  0  0  0
 15 70  1  0  0  0
 15 71  1  0  0  0
 16 17  1  0  0  0
 16 72  1  0  0  0
 16 73  1  0  0  0
 17 18  1  0  0  0
 17 74  1  0  0  0
 17 75  1  0  0  0
 18 19  1  0  0  0
 18 76  1  0  0  0
 18 77  1  0  0  0
 19 20  1  0  0  0
 19 78  1  0  0  0
 19 79  1  0  0  0
 20 21  1  0  0  0
 20 80  1  0  0  0
 20 81  1  0  0  0
 21 22  1  0  0  0
 21 82  1  0  0  0
 21 83  1  0  0  0
 22 23  1  0  0  0
 22 84  1  0  0  0
 22 85  1  0  0  0
 23 24  1  0  0  0
 23 86  1  0  0  0
 23 87  1  0  0  0
 24 25  1  0  0  0
 24 88  1  0  0  0
 24 89  1  0  0  0
 25 26  1  0  0  0
 25 90  1  0  0  0
 25 91  1  0  0  0
 26 27  1  0  0  0
 26 92  1  0  0  0
 26 93  1  0  0  0
 27 28  1  0  0  0
 27 94  1  0  0  0
 27 95  1  0  0  0
 28 96  1  0  0  0
 28 97  1  0  0  0
 28 98  1  0  0  0
 29 30  1  0  0  0
 29 31  2  0  0  0
 30 32  1  0  0  0
 30 99  1  0  0  0
 30100  1  0  0  0
 32 33  1  0  0  0
 32101  1  0  0  0
 32102  1  0  0  0
 33 34  1  0  0  0
 33103  1  0  0  0
 33104  1  0  0  0
 34 35  1  0  0  0
 34105  1  0  0  0
 34106  1  0  0  0
 35 36  1  0  0  0
 35107  1  0  0  0
 35108  1  0  0  0
 36 37  1  0  0  0
 36109  1  0  0  0
 36110  1  0  0  0
 37 38  1  0  0  0
 37111  1  0  0  0
 37112  1  0  0  0
 38 39  1  0  0  0
 38113  1  0  0  0
 38114  1  0  0  0
 39 40  1  0  0  0
 39115  1  0  0  0
 39116  1  0  0  0
 40 41  1  0  0  0
 40117  1  0  0  0
 40118  1  0  0  0
 41 42  1  0  0  0
 41119  1  0  0  0
 41120  1  0  0  0
 42 43  1  0  0  0
 42121  1  0  0  0
 42122  1  0  0  0
 43 44  1  0  0  0
 43123  1  0  0  0
 43124  1  0  0  0
 44125  1  0  0  0
 44126  1  0  0  0
 44127  1  0  0  0
 45 46  1  0  0  0
 45 47  1  0  0  0
 45 48  2  0  0  0
 45 49  1  0  0  0
 47128  1  0  0  0
 50129  1  0  0  0
 50130  1  0  0  0
M  END
$$$$
