PVE
  CCTOOLS-1004241122

 45 47  0  0  1  0  0  0  0  0999 V2000
  -69.8680  -26.6170   24.0010 O   0  0  0  0  0
  -68.6560  -26.3890   23.7810 C   0  0  0  0  0
  -67.8060  -26.2100   24.7000 O   0  0  0  0  0
  -68.2110  -26.3300   22.3270 C   0  0  0  0  0
  -69.0670  -27.2290   21.4320 C   0  0  0  0  0
  -68.7540  -28.6850   21.7280 C   0  0  0  0  0
  -68.5400  -29.0340   22.8880 O   0  0  0  0  0
  -68.7250  -29.5410   20.6880 N   0  0  0  0  0
  -68.4450  -30.9050   20.9040 C   0  0  0  0  0
  -67.1530  -31.4180   20.7260 C   0  0  0  0  0
  -66.8970  -32.7810   20.9570 C   0  0  0  0  0
  -65.5950  -33.2840   20.7790 C   0  0  0  0  0
  -65.3080  -34.6260   20.9950 C   0  0  0  0  0
  -64.0800  -35.1820   20.8430 O   0  0  0  0  0
  -66.3020  -35.4770   21.3920 C   0  0  0  0  0
  -65.8670  -36.7600   21.5930 O   0  0  0  0  0
  -67.6260  -34.9940   21.5780 C   0  0  0  0  0
  -67.9460  -33.6240   21.3640 C   0  0  0  0  0
  -69.2020  -33.0830   21.5600 N   0  3  0  0  0
  -70.3400  -33.9340   21.9440 C   0  0  0  0  0
  -70.7890  -34.5760   20.6330 C   0  0  0  0  0
  -70.8260  -33.8780   19.6220 O   0  0  0  0  0
  -69.4650  -31.7590   21.3240 C   0  0  0  0  0
  -70.7110  -31.1980   21.4770 N   0  0  0  0  0
  -71.9090  -31.8640   21.9770 C   0  0  0  0  0
  -71.4690  -33.1640   22.6450 C   0  0  0  0  0
  -71.1050  -35.8190   20.5870 O   0  0  0  0  0
  -68.2340  -26.2770   25.5450 H   0  0  0  0  0
  -68.3010  -25.2920   21.9730 H   0  0  0  0  0
  -67.1710  -26.6830   22.2730 H   0  0  0  0  0
  -70.1320  -27.0360   21.6290 H   0  0  0  0  0
  -68.8440  -27.0140   20.3760 H   0  0  0  0  0
  -68.9020  -29.2080   19.7620 H   0  0  0  0  0
  -66.3530  -30.7650   20.4110 H   0  0  0  0  0
  -64.8050  -32.6160   20.4690 H   0  0  0  0  0
  -63.9030  -35.3120   19.9190 H   0  0  0  0  0
  -65.7660  -37.1960   20.7550 H   0  0  0  0  0
  -68.4020  -35.6780   21.8870 H   0  0  0  0  0
  -70.0490  -34.6820   22.6960 H   0  0  0  0  0
  -72.3460  -33.8270   22.6800 H   0  0  0  0  0
  -71.0700  -32.8760   23.6280 H   0  0  0  0  0
  -71.3460  -36.0520   19.6980 H   0  0  0  0  0
  -70.8060  -30.2360   21.2200 H   0  0  0  0  0
  -72.4240  -31.2200   22.7050 H   0  0  0  0  0
  -72.6070  -32.0710   21.1530 H   0  0  0  0  0
  1  2  2  0  0  0
  2  3  1  0  0  0
  2  4  1  0  0  0
  3 28  1  0  0  0
  4  5  1  0  0  0
  4 29  1  0  0  0
  4 30  1  0  0  0
  5  6  1  0  0  0
  5 31  1  0  0  0
  5 32  1  0  0  0
  6  7  2  0  0  0
  6  8  1  0  0  0
  8  9  1  0  0  0
  8 33  1  0  0  0
  9 10  2  0  0  0
  9 23  1  0  0  0
 10 11  1  0  0  0
 10 34  1  0  0  0
 11 12  1  0  0  0
 11 18  2  0  0  0
 12 13  2  0  0  0
 12 35  1  0  0  0
 13 14  1  0  0  0
 13 15  1  0  0  0
 14 36  1  0  0  0
 15 16  1  0  0  0
 15 17  2  0  0  0
 16 37  1  0  0  0
 17 18  1  0  0  0
 17 38  1  0  0  0
 18 19  1  0  0  0
 19 20  1  0  0  0
 19 23  2  0  0  0
 20 21  1  0  0  0
 20 26  1  0  0  0
 20 39  1  0  0  0
 21 22  2  0  0  0
 21 27  1  0  0  0
 23 24  1  0  0  0
 24 25  1  0  0  0
 24 43  1  0  0  0
 25 26  1  0  0  0
 25 44  1  0  0  0
 25 45  1  0  0  0
 26 40  1  0  0  0
 26 41  1  0  0  0
 27 42  1  0  0  0
M  CHG  1  19   1
M  END
$$$$
