PXE
  CCTOOLS-0919241034

 26 26  0  0  0  0  0  0  0  0999 V2000
    2.6510    2.2020    0.0000 O   0  0  0  0  0
    2.6650    0.9840    0.0020 N   0  0  0  0  0
    1.5370    0.3140    0.0020 C   0  0  0  0  0
    0.2550    1.0310    0.0000 C   0  0  0  0  0
   -0.9020    0.3390    0.0000 C   0  0  0  0  0
   -0.8820   -1.1230    0.0020 C   0  0  0  0  0
    0.3910   -1.8400    0.0040 C   0  0  0  0  0
    1.5530   -1.1550   -0.0020 C   0  0  0  0  0
   -1.9310   -1.7450    0.0030 O   0  0  0  0  0
    2.8650   -1.8960   -0.0050 C   0  0  0  0  0
   -2.2180    1.0740   -0.0020 C   0  0  0  0  0
   -3.0140    0.6910   -1.2520 C   0  0  0  0  0
   -3.0160    0.6940    1.2470 C   0  0  0  0  0
    3.5070    2.6510    0.0000 H   0  0  0  0  0
    3.1830   -2.0770    1.0210 H   0  0  0  0  0
    2.7440   -2.8480   -0.5220 H   0  0  0  0  0
    3.6180   -1.2980   -0.5190 H   0  0  0  0  0
   -2.0350    2.1480   -0.0030 H   0  0  0  0  0
   -3.9660    1.2220   -1.2530 H   0  0  0  0  0
   -2.4450    0.9610   -2.1410 H   0  0  0  0  0
   -3.1980   -0.3840   -1.2500 H   0  0  0  0  0
   -2.4490    0.9660    2.1370 H   0  0  0  0  0
   -3.9680    1.2250    1.2450 H   0  0  0  0  0
   -3.2000   -0.3810    1.2480 H   0  0  0  0  0
    0.2390    2.1110   -0.0010 H   0  0  0  0  0
    0.4020   -2.9200    0.0060 H   0  0  0  0  0
  1  2  1  0  0  0
  1 14  1  0  0  0
  2  3  2  0  0  0
  3  4  1  0  0  0
  3  8  1  0  0  0
  4  5  2  0  0  0
  4 25  1  0  0  0
  5  6  1  0  0  0
  5 11  1  0  0  0
  6  7  1  0  0  0
  6  9  2  0  0  0
  7  8  2  0  0  0
  7 26  1  0  0  0
  8 10  1  0  0  0
 10 15  1  0  0  0
 10 16  1  0  0  0
 10 17  1  0  0  0
 11 12  1  0  0  0
 11 13  1  0  0  0
 11 18  1  0  0  0
 12 19  1  0  0  0
 12 20  1  0  0  0
 12 21  1  0  0  0
 13 22  1  0  0  0
 13 23  1  0  0  0
 13 24  1  0  0  0
M  END
$$$$
