PXP
  CCTOOLS-1004241123

 28 28  0  0  0  0  0  0  0  0999 V2000
    2.0110   -0.2190    2.0960 N   0  0  0  0  0
    1.2200   -0.0690    3.1400 C   0  0  0  0  0
    1.7960   -0.1550    4.5300 C   0  0  0  0  0
   -0.1360    0.1600    2.9730 C   0  0  0  0  0
   -0.9480    0.3130    4.0530 O   0  0  0  0  0
   -0.6540    0.2420    1.6840 C   0  0  0  0  0
   -2.1220    0.4970    1.4570 C   0  0  0  0  0
   -2.8180   -0.7490    1.3990 O   0  0  0  0  0
    0.2110    0.0790    0.6150 C   0  0  0  0  0
    1.5510   -0.1530    0.8620 C   0  0  0  0  0
   -0.3010    0.1530   -0.7990 C   0  0  0  0  0
    0.7810   -0.0470   -1.7090 O   0  0  0  0  0
    0.1640    0.0440   -3.1940 P   0  0  0  0  0
   -0.4490    1.3760   -3.3920 O   0  0  0  0  0
    1.3360   -0.1730   -4.2760 O   0  0  0  0  0
   -0.9560   -1.0950   -3.3800 O   0  0  0  0  0
    2.1130    0.8360    4.8540 H   0  0  0  0  0
    1.0390   -0.5370    5.2150 H   0  0  0  0  0
    2.6550   -0.8270    4.5270 H   0  0  0  0  0
   -1.2770   -0.5660    4.2820 H   0  0  0  0  0
   -2.5180    1.0960    2.2760 H   0  0  0  0  0
   -2.2560    1.0320    0.5160 H   0  0  0  0  0
   -3.7510   -0.5420    1.2530 H   0  0  0  0  0
    2.2310   -0.2810    0.0330 H   0  0  0  0  0
   -1.0530   -0.6200   -0.9540 H   0  0  0  0  0
   -0.7460    1.1320   -0.9730 H   0  0  0  0  0
    0.9250   -0.1100   -5.1490 H   0  0  0  0  0
   -0.5160   -1.9450   -3.2430 H   0  0  0  0  0
  1  2  2  0  0  0
  1 10  1  0  0  0
  2  3  1  0  0  0
  2  4  1  0  0  0
  3 17  1  0  0  0
  3 18  1  0  0  0
  3 19  1  0  0  0
  4  5  1  0  0  0
  4  6  2  0  0  0
  5 20  1  0  0  0
  6  7  1  0  0  0
  6  9  1  0  0  0
  7  8  1  0  0  0
  7 21  1  0  0  0
  7 22  1  0  0  0
  8 23  1  0  0  0
  9 10  2  0  0  0
  9 11  1  0  0  0
 10 24  1  0  0  0
 11 12  1  0  0  0
 11 25  1  0  0  0
 11 26  1  0  0  0
 12 13  1  0  0  0
 13 14  2  0  0  0
 13 15  1  0  0  0
 13 16  1  0  0  0
 15 27  1  0  0  0
 16 28  1  0  0  0
M  END
$$$$
