PXX
  CCTOOLS-0919241034

 29 31  0  0  0  0  0  0  0  0999 V2000
    4.7790    0.7650    0.0600 C   0  0  0  0  0
    3.2800    0.9040    0.1190 C   0  0  0  0  0
    2.7810    1.8730    0.6520 O   0  0  0  0  0
    2.4920   -0.0490   -0.4190 N   0  0  0  0  0
    1.1050    0.0320   -0.2800 C   0  0  0  0  0
    0.3190   -1.1900   -0.1230 C   0  0  0  0  0
    0.9310   -2.4520   -0.1080 C   0  0  0  0  0
    0.1340   -3.5550    0.0430 C   0  0  0  0  0
   -1.2410   -3.4010    0.1760 C   0  0  0  0  0
   -1.8050   -2.2150    0.1600 N   0  0  0  0  0
   -1.0830   -1.1070    0.0170 C   0  0  0  0  0
   -1.7140    0.2180    0.0010 C   0  0  0  0  0
   -3.0330    0.3450    0.1290 N   0  0  0  0  0
   -3.6130    1.5230    0.1160 C   0  0  0  0  0
   -2.8760    2.6930   -0.0330 C   0  0  0  0  0
   -1.5170    2.6290   -0.1690 C   0  0  0  0  0
   -0.9030    1.3630   -0.1540 C   0  0  0  0  0
    0.4960    1.2450   -0.2870 C   0  0  0  0  0
    5.1300    0.2320    0.9440 H   0  0  0  0  0
    5.0570    0.2060   -0.8350 H   0  0  0  0  0
    5.2350    1.7540    0.0270 H   0  0  0  0  0
    2.8890   -0.7900   -0.9020 H   0  0  0  0  0
    2.0010   -2.5510   -0.2140 H   0  0  0  0  0
    0.5730   -4.5420    0.0580 H   0  0  0  0  0
   -1.8600   -4.2780    0.2940 H   0  0  0  0  0
   -4.6860    1.5850    0.2230 H   0  0  0  0  0
   -3.3770    3.6500   -0.0410 H   0  0  0  0  0
   -0.9300    3.5280   -0.2860 H   0  0  0  0  0
    1.0950    2.1360   -0.4010 H   0  0  0  0  0
  1  2  1  0  0  0
  1 19  1  0  0  0
  1 20  1  0  0  0
  1 21  1  0  0  0
  2  3  2  0  0  0
  2  4  1  0  0  0
  4  5  1  0  0  0
  4 22  1  0  0  0
  5  6  2  0  0  0
  5 18  1  0  0  0
  6  7  1  0  0  0
  6 11  1  0  0  0
  7  8  2  0  0  0
  7 23  1  0  0  0
  8  9  1  0  0  0
  8 24  1  0  0  0
  9 10  2  0  0  0
  9 25  1  0  0  0
 10 11  1  0  0  0
 11 12  2  0  0  0
 12 13  1  0  0  0
 12 17  1  0  0  0
 13 14  2  0  0  0
 14 15  1  0  0  0
 14 26  1  0  0  0
 15 16  2  0  0  0
 15 27  1  0  0  0
 16 17  1  0  0  0
 16 28  1  0  0  0
 17 18  2  0  0  0
 18 29  1  0  0  0
M  END
$$$$
