PYB
  CCTOOLS-0919241034

 18 18  0  0  0  0  0  0  0  0999 V2000
   -0.0620   -0.0010   -0.2610 N   0  0  0  0  0
    0.2890    0.0200    1.0410 C   0  0  0  0  0
    1.5200    0.4730    1.5760 C   0  0  0  0  0
   -0.4890   -0.3990    2.0980 C   0  0  0  0  0
    1.4570    0.3170    2.9430 C   0  0  0  0  0
    0.2310   -0.2130    3.2490 N   0  0  0  0  0
   -0.2450   -0.5330    4.5770 C   0  0  0  0  0
    2.4670    0.6390    3.9050 C   0  0  0  0  0
    2.2760    0.9940    5.0870 O   0  0  0  0  0
    3.7420    0.5230    3.4150 O   0  0  0  0  0
   -1.0300    0.1740   -0.5710 H   0  0  0  0  0
    0.5960   -0.2830   -1.0030 H   0  0  0  0  0
    2.3620    0.8700    1.0240 H   0  0  0  0  0
   -1.4900   -0.8110    2.1290 H   0  0  0  0  0
    0.5700   -0.3490    5.2810 H   0  0  0  0  0
   -1.1070    0.0970    4.8160 H   0  0  0  0  0
   -0.5500   -1.5830    4.6080 H   0  0  0  0  0
    4.4410    0.7400    4.0670 H   0  0  0  0  0
  1  2  1  0  0  0
  1 11  1  0  0  0
  1 12  1  0  0  0
  2  3  1  0  0  0
  2  4  2  0  0  0
  3  5  2  0  0  0
  3 13  1  0  0  0
  4  6  1  0  0  0
  4 14  1  0  0  0
  5  6  1  0  0  0
  5  8  1  0  0  0
  6  7  1  0  0  0
  7 15  1  0  0  0
  7 16  1  0  0  0
  7 17  1  0  0  0
  8  9  2  0  0  0
  8 10  1  0  0  0
 10 18  1  0  0  0
M  END
$$$$
