PYJ
  CCTOOLS-1004241123

 18 18  0  0  0  0  0  0  0  0999 V2000
   -1.9620    0.0020   -0.5920 C   0  0  0  0  0
   -2.7400   -0.0020    0.7250 C   0  0  0  0  0
   -0.4830    0.0010   -0.3020 C   0  0  0  0  0
    0.1950   -1.1970   -0.1720 C   0  0  0  0  0
    0.1960    1.1980   -0.1700 C   0  0  0  0  0
    1.5510   -1.1980    0.0950 C   0  0  0  0  0
    1.5530    1.1970    0.0960 C   0  0  0  0  0
    2.2300   -0.0010    0.2310 C   0  0  0  0  0
   -2.2200   -0.8860   -1.1690 H   0  0  0  0  0
   -2.2190    0.8940   -1.1640 H   0  0  0  0  0
   -3.8100   -0.0010    0.5150 H   0  0  0  0  0
   -2.4830   -0.8930    1.2960 H   0  0  0  0  0
   -2.4830    0.8870    1.3020 H   0  0  0  0  0
   -0.3350   -2.1320   -0.2780 H   0  0  0  0  0
   -0.3320    2.1330   -0.2760 H   0  0  0  0  0
    2.0810   -2.1330    0.1970 H   0  0  0  0  0
    2.0840    2.1320    0.1980 H   0  0  0  0  0
    3.2890   -0.0020    0.4400 H   0  0  0  0  0
  1  2  1  0  0  0
  1  3  1  0  0  0
  1  9  1  0  0  0
  1 10  1  0  0  0
  2 11  1  0  0  0
  2 12  1  0  0  0
  2 13  1  0  0  0
  3  4  2  0  0  0
  3  5  1  0  0  0
  4  6  1  0  0  0
  4 14  1  0  0  0
  5  7  2  0  0  0
  5 15  1  0  0  0
  6  8  2  0  0  0
  6 16  1  0  0  0
  7  8  1  0  0  0
  7 17  1  0  0  0
  8 18  1  0  0  0
M  END
$$$$
