Q21
  CCTOOLS-0919241034

 50 54  0  0  1  0  0  0  0  0999 V2000
    1.2820   -0.7850    0.0170 O   0  0  0  0  0
    1.3460    0.4200    0.1380 C   0  0  0  0  0
    2.6650    1.1260   -0.0460 C   0  0  0  0  0
    2.5480    2.1340   -1.1920 C   0  0  0  0  0
    3.6790    0.1690   -0.3560 O   0  0  0  0  0
    4.9600    0.5080   -0.0570 C   0  0  0  0  0
    5.2470    1.7570    0.4160 C   0  0  0  0  0
    6.5550    2.1210    0.7260 C   0  0  0  0  0
    7.5840    1.2440    0.5690 C   0  0  0  0  0
    6.0010   -0.4280   -0.2280 C   0  0  0  0  0
    5.7460   -1.7220   -0.7060 C   0  0  0  0  0
    6.7760   -2.6000   -0.8570 C   0  0  0  0  0
    8.0830   -2.2320   -0.5450 C   0  0  0  0  0
    8.3670   -0.9850   -0.0790 C   0  0  0  0  0
    7.3300   -0.0510    0.0850 C   0  0  0  0  0
    0.2380    1.1280    0.4330 N   0  0  0  0  0
   -1.0050    0.4860    0.5040 C   0  0  0  0  0
   -1.0890   -0.8080    1.0150 C   0  0  0  0  0
   -2.3060   -1.4510    1.0900 C   0  0  0  0  0
   -3.4570   -0.8100    0.6560 C   0  0  0  0  0
   -3.3800    0.4950    0.1410 C   0  0  0  0  0
   -2.1430    1.1410    0.0730 C   0  0  0  0  0
   -4.7600   -1.1650    0.6020 O   0  0  0  0  0
   -5.4530   -0.1350    0.0810 C   0  0  0  0  0
   -4.6440    0.8550   -0.1970 N   0  0  0  0  0
   -6.9150   -0.1250   -0.1450 C   0  0  0  0  0
   -7.7010   -1.2340    0.1850 C   0  0  0  0  0
   -9.0610   -1.1810   -0.0430 C   0  0  0  0  0
   -9.6200   -0.1060   -0.5630 N   0  0  0  0  0
   -8.9160    0.9610   -0.8880 C   0  0  0  0  0
   -7.5510    0.9970   -0.6890 C   0  0  0  0  0
    2.9280    1.6500    0.8730 H   0  0  0  0  0
    2.2840    1.6100   -2.1110 H   0  0  0  0  0
    1.7740    2.8640   -0.9560 H   0  0  0  0  0
    3.5010    2.6440   -1.3260 H   0  0  0  0  0
    4.4500    2.4730    0.5500 H   0  0  0  0  0
    6.7560    3.1150    1.0980 H   0  0  0  0  0
    8.5930    1.5430    0.8140 H   0  0  0  0  0
    4.7370   -2.0220   -0.9510 H   0  0  0  0  0
    6.5770   -3.5960   -1.2250 H   0  0  0  0  0
    8.8820   -2.9470   -0.6740 H   0  0  0  0  0
    9.3850   -0.7140    0.1600 H   0  0  0  0  0
    0.3010    2.0820    0.5960 H   0  0  0  0  0
   -0.1950   -1.3100    1.3540 H   0  0  0  0  0
   -2.3630   -2.4540    1.4860 H   0  0  0  0  0
   -2.0760    2.1450   -0.3180 H   0  0  0  0  0
   -7.2510   -2.1190    0.6110 H   0  0  0  0  0
   -9.6770   -2.0330    0.2080 H   0  0  0  0  0
   -9.4150    1.8200   -1.3120 H   0  0  0  0  0
   -6.9800    1.8740   -0.9570 H   0  0  0  0  0
  2  1  2  0  0  0
  3  2  1  0  0  0
  3  5  1  0  0  0
  3 32  1  0  0  0
  4  3  1  0  0  0
  4 33  1  0  0  0
  4 34  1  0  0  0
  4 35  1  0  0  0
  5  6  1  0  0  0
  6 10  1  0  0  0
  7  6  2  0  0  0
  7  8  1  0  0  0
  7 36  1  0  0  0
  8  9  2  0  0  0
  8 37  1  0  0  0
  9 15  1  0  0  0
  9 38  1  0  0  0
 10 11  2  0  0  0
 10 15  1  0  0  0
 11 12  1  0  0  0
 11 39  1  0  0  0
 12 13  2  0  0  0
 12 40  1  0  0  0
 13 41  1  0  0  0
 14 13  1  0  0  0
 14 42  1  0  0  0
 15 14  2  0  0  0
 16 17  1  0  0  0
 16  2  1  0  0  0
 16 43  1  0  0  0
 17 22  2  0  0  0
 18 17  1  0  0  0
 18 44  1  0  0  0
 19 18  2  0  0  0
 19 20  1  0  0  0
 19 45  1  0  0  0
 20 23  1  0  0  0
 20 21  2  0  0  0
 21 22  1  0  0  0
 21 25  1  0  0  0
 22 46  1  0  0  0
 23 24  1  0  0  0
 24 26  1  0  0  0
 24 25  2  0  0  0
 26 27  2  0  0  0
 27 28  1  0  0  0
 27 47  1  0  0  0
 28 48  1  0  0  0
 29 28  2  0  0  0
 30 29  1  0  0  0
 30 49  1  0  0  0
 31 30  2  0  0  0
 31 26  1  0  0  0
 31 50  1  0  0  0
M  END
$$$$
