QHA
  CCTOOLS-0919241036

 88 92  0  0  1  0  0  0  0  0999 V2000
    1.7090    7.2040   -0.4660 C   0  0  0  0  0
    1.5890    6.0460    0.4240 N   0  0  0  0  0
    2.3580    4.9260    0.2040 C   0  0  0  0  0
    3.2250    4.7910   -0.7660 N   0  0  0  0  0
    2.3330    3.8140    0.9590 O   0  0  0  0  0
    3.2180    2.9310    0.4410 C   0  0  0  0  0
    3.6100    1.6500    0.7910 C   0  0  0  0  0
    3.7970    3.5590   -0.6730 C   0  0  0  0  0
    4.7640    2.8850   -1.4200 C   0  0  0  0  0
    5.1400    1.6090   -1.0600 C   0  0  0  0  0
    4.5660    0.9930    0.0410 C   0  0  0  0  0
    5.0620   -0.6360    0.4900 S   0  0  0  0  0
    6.3610   -0.8240   -0.0550 O   0  0  0  0  0
    4.7720   -0.7780    1.8730 O   0  0  0  0  0
    4.0640   -1.6900   -0.3080 N   0  0  0  0  0
    4.4290   -2.1800   -1.6390 C   0  0  0  0  0
    5.1430   -3.5260   -1.5090 C   0  0  0  0  0
    5.4130   -4.0970   -2.9030 C   0  0  0  0  0
    6.4700   -3.3310   -0.7720 C   0  0  0  0  0
    2.8160   -2.1320    0.3190 C   0  0  0  0  0
    1.6630   -1.2490   -0.1620 C   0  0  0  0  0
    1.4700   -1.4380   -1.5650 O   0  0  0  0  0
    0.3830   -1.6290    0.5850 C   0  0  0  0  0
   -0.0190   -3.0570    0.2130 C   0  0  0  0  0
   -1.2080   -3.4760    1.0390 C   0  0  0  0  0
   -2.4890   -3.2410    0.5760 C   0  0  0  0  0
   -3.5790   -3.6250    1.3340 C   0  0  0  0  0
   -3.3880   -4.2450    2.5550 C   0  0  0  0  0
   -2.1070   -4.4810    3.0180 C   0  0  0  0  0
   -1.0170   -4.1010    2.2570 C   0  0  0  0  0
   -0.6920   -0.7060    0.2140 N   0  0  0  0  0
   -1.7230   -0.4980    1.0570 C   0  0  0  0  0
   -1.7600   -1.0760    2.1250 O   0  0  0  0  0
   -2.7110    0.3510    0.7150 O   0  0  0  0  0
   -3.7890    0.5260    1.6720 C   0  0  0  0  0
   -5.1090    0.8550    0.9440 C   0  0  0  0  0
   -3.5280    1.7630    2.5600 C   0  0  0  0  0
   -4.2310    2.8410    1.9060 O   0  0  0  0  0
   -5.4800    2.2740    1.4600 C   0  0  0  0  0
   -5.9140    2.9890    0.2840 O   0  0  0  0  0
   -5.0130    2.5860   -0.7690 C   0  0  0  0  0
   -4.8100    1.0700   -0.5550 C   0  0  0  0  0
   -5.7260    0.3240   -1.3600 O   0  0  0  0  0
   -5.1860   -0.1000   -2.6130 C   0  0  0  0  0
   -6.2330   -0.8730   -3.3750 C   0  0  0  0  0
   -6.6840   -2.0520   -2.8950 F   0  0  0  0  0
   -6.7050   -0.3990   -4.5050 C   0  0  0  0  0
    2.7330    7.5780   -0.4390 H   0  0  0  0  0
    1.4570    6.9070   -1.4840 H   0  0  0  0  0
    1.0270    7.9880   -0.1370 H   0  0  0  0  0
    3.1700    1.1650    1.6500 H   0  0  0  0  0
    5.2150    3.3620   -2.2770 H   0  0  0  0  0
    5.8880    1.0870   -1.6380 H   0  0  0  0  0
    3.5290   -2.3020   -2.2410 H   0  0  0  0  0
    5.0930   -1.4620   -2.1210 H   0  0  0  0  0
    2.6180   -3.1680    0.0430 H   0  0  0  0  0
    2.9060   -2.0550    1.4020 H   0  0  0  0  0
    4.5150   -4.2190   -0.9490 H   0  0  0  0  0
    6.0420   -3.4050   -3.4630 H   0  0  0  0  0
    5.9220   -5.0560   -2.8110 H   0  0  0  0  0
    4.4690   -4.2360   -3.4280 H   0  0  0  0  0
    6.2770   -2.9250    0.2210 H   0  0  0  0  0
    6.9780   -4.2910   -0.6800 H   0  0  0  0  0
    7.0980   -2.6390   -1.3320 H   0  0  0  0  0
    1.9010   -0.2030    0.0340 H   0  0  0  0  0
    1.2550   -2.3480   -1.8130 H   0  0  0  0  0
    0.5580   -1.5700    1.6600 H   0  0  0  0  0
   -0.2800   -3.0970   -0.8450 H   0  0  0  0  0
    0.8140   -3.7320    0.4070 H   0  0  0  0  0
   -0.6620   -0.2450   -0.6390 H   0  0  0  0  0
   -2.6380   -2.7570   -0.3780 H   0  0  0  0  0
   -0.0160   -4.2880    2.6170 H   0  0  0  0  0
   -4.5800   -3.4410    0.9730 H   0  0  0  0  0
   -4.2400   -4.5450    3.1480 H   0  0  0  0  0
   -1.9580   -4.9650    3.9720 H   0  0  0  0  0
   -3.9040   -0.3680    2.2850 H   0  0  0  0  0
   -5.8900    0.1160    1.1280 H   0  0  0  0  0
   -3.9260    1.6020    3.5610 H   0  0  0  0  0
   -2.4600    1.9790    2.6050 H   0  0  0  0  0
   -6.2340    2.2520    2.2470 H   0  0  0  0  0
   -3.7830    0.7870   -0.7840 H   0  0  0  0  0
   -5.4600    2.7750   -1.7450 H   0  0  0  0  0
   -4.0630    3.1120   -0.6770 H   0  0  0  0  0
   -4.8850    0.7720   -3.1930 H   0  0  0  0  0
   -4.3200   -0.7370   -2.4380 H   0  0  0  0  0
   -6.3440    0.5440   -4.8880 H   0  0  0  0  0
   -7.4550   -0.9530   -5.0500 H   0  0  0  0  0
    0.9670    6.0690    1.1680 H   0  0  0  0  0
  1  2  1  0  0  0
  1 48  1  0  0  0
  1 49  1  0  0  0
  1 50  1  0  0  0
  2  3  1  0  0  0
  2 88  1  0  0  0
  3  4  2  0  0  0
  3  5  1  0  0  0
  4  8  1  0  0  0
  5  6  1  0  0  0
  6  7  2  0  0  0
  6  8  1  0  0  0
  7 11  1  0  0  0
  7 51  1  0  0  0
  8  9  2  0  0  0
  9 10  1  0  0  0
  9 52  1  0  0  0
 10 11  2  0  0  0
 10 53  1  0  0  0
 11 12  1  0  0  0
 12 13  2  0  0  0
 12 14  2  0  0  0
 12 15  1  0  0  0
 15 16  1  0  0  0
 15 20  1  0  0  0
 16 17  1  0  0  0
 16 54  1  0  0  0
 16 55  1  0  0  0
 17 18  1  0  0  0
 17 19  1  0  0  0
 17 58  1  0  0  0
 18 59  1  0  0  0
 18 60  1  0  0  0
 18 61  1  0  0  0
 19 62  1  0  0  0
 19 63  1  0  0  0
 19 64  1  0  0  0
 20 21  1  0  0  0
 20 56  1  0  0  0
 20 57  1  0  0  0
 21 22  1  0  0  0
 21 23  1  0  0  0
 21 65  1  0  0  0
 22 66  1  0  0  0
 23 24  1  0  0  0
 23 31  1  0  0  0
 23 67  1  0  0  0
 24 25  1  0  0  0
 24 68  1  0  0  0
 24 69  1  0  0  0
 25 26  1  0  0  0
 25 30  2  0  0  0
 26 27  2  0  0  0
 26 71  1  0  0  0
 27 28  1  0  0  0
 27 73  1  0  0  0
 28 29  2  0  0  0
 28 74  1  0  0  0
 29 30  1  0  0  0
 29 75  1  0  0  0
 30 72  1  0  0  0
 31 32  1  0  0  0
 31 70  1  0  0  0
 32 33  2  0  0  0
 32 34  1  0  0  0
 34 35  1  0  0  0
 35 36  1  0  0  0
 35 37  1  0  0  0
 35 76  1  0  0  0
 36 39  1  0  0  0
 36 42  1  0  0  0
 36 77  1  0  0  0
 37 38  1  0  0  0
 37 78  1  0  0  0
 37 79  1  0  0  0
 38 39  1  0  0  0
 39 40  1  0  0  0
 39 80  1  0  0  0
 40 41  1  0  0  0
 41 42  1  0  0  0
 41 82  1  0  0  0
 41 83  1  0  0  0
 42 43  1  0  0  0
 42 81  1  0  0  0
 43 44  1  0  0  0
 44 45  1  0  0  0
 44 84  1  0  0  0
 44 85  1  0  0  0
 45 46  1  0  0  0
 45 47  2  0  0  0
 47 86  1  0  0  0
 47 87  1  0  0  0
M  END
$$$$
