QMR
  CCTOOLS-0919241037

 29 32  0  0  1  0  0  0  0  0999 V2000
    2.8200    1.2220    0.7870 C   0  0  0  0  0
    2.4560    0.0050    1.5230 N   0  0  0  0  0
    2.8190   -1.2170    0.7950 C   0  0  0  0  0
    2.1620   -1.1850   -0.5980 C   0  0  0  0  0
    2.8280   -0.0040   -1.3610 C   0  0  0  0  0
    2.1620    1.1810   -0.6050 C   0  0  0  0  0
    0.7320    0.6970   -0.4080 C   0  0  0  0  0
   -0.4250    1.3960   -0.2520 C   0  0  0  0  0
   -1.6400    0.7090   -0.0850 C   0  0  0  0  0
   -2.7910    1.3700    0.0740 N   0  0  0  0  0
   -3.9110    0.6990    0.2260 C   0  0  0  0  0
   -3.9120   -0.6970    0.2250 C   0  0  0  0  0
   -2.7930   -1.3690    0.0720 N   0  0  0  0  0
   -1.6400   -0.7090   -0.0840 C   0  0  0  0  0
   -0.4260   -1.3980   -0.2480 C   0  0  0  0  0
    0.7320   -0.7000   -0.4050 C   0  0  0  0  0
    2.4670    2.0980    1.3320 H   0  0  0  0  0
    3.9040    1.2720    0.6780 H   0  0  0  0  0
    2.8580    0.0080    2.4490 H   0  0  0  0  0
    2.2370    2.1280   -1.1400 H   0  0  0  0  0
    3.9030   -1.2690    0.6860 H   0  0  0  0  0
    2.4650   -2.0890    1.3460 H   0  0  0  0  0
    2.2380   -2.1350   -1.1270 H   0  0  0  0  0
    3.9100   -0.0040   -1.2300 H   0  0  0  0  0
    2.5560   -0.0080   -2.4170 H   0  0  0  0  0
   -0.4100    2.4760   -0.2550 H   0  0  0  0  0
   -4.8400    1.2340    0.3540 H   0  0  0  0  0
   -4.8420   -1.2310    0.3510 H   0  0  0  0  0
   -0.4110   -2.4780   -0.2480 H   0  0  0  0  0
  1  2  1  0  0  0
  1  6  1  0  0  0
  1 17  1  0  0  0
  1 18  1  0  0  0
  2  3  1  0  0  0
  2 19  1  0  0  0
  3  4  1  0  0  0
  3 21  1  0  0  0
  3 22  1  0  0  0
  4  5  1  0  0  0
  4 16  1  0  0  0
  4 23  1  0  0  0
  5  6  1  0  0  0
  5 24  1  0  0  0
  5 25  1  0  0  0
  6  7  1  0  0  0
  6 20  1  0  0  0
  7  8  2  0  0  0
  7 16  1  0  0  0
  8  9  1  0  0  0
  8 26  1  0  0  0
  9 10  2  0  0  0
  9 14  1  0  0  0
 10 11  1  0  0  0
 11 12  2  0  0  0
 11 27  1  0  0  0
 12 13  1  0  0  0
 12 28  1  0  0  0
 13 14  2  0  0  0
 14 15  1  0  0  0
 15 16  2  0  0  0
 15 29  1  0  0  0
M  END
$$$$
