QPS
  CCTOOLS-0919241038

 87 90  0  0  1  0  0  0  0  0999 V2000
    7.5740   -1.2200   -0.7470 C   0  0  0  0  0
    6.7100   -0.0050   -0.3980 C   0  0  0  0  0
    5.2590   -0.4600   -0.2100 C   0  0  0  0  0
    5.2080   -1.5400    0.8740 C   0  0  0  0  0
    3.7710   -2.0430    1.0260 C   0  0  0  0  0
    7.4330   -2.2710    0.3580 C   0  0  0  0  0
    8.1930   -3.4310    0.0120 O   0  0  0  0  0
    8.9410   -0.8200   -0.8540 O   0  0  0  0  0
    6.7770    0.9500   -1.4590 O   0  0  0  0  0
    4.4570    0.6530    0.1870 O   0  0  0  0  0
    6.0570   -2.6280    0.5020 O   0  0  0  0  0
    3.7060   -2.9790    2.1040 O   0  0  0  0  0
    3.9760    1.4410   -0.9040 C   0  0  0  0  0
    3.4020    2.7570   -0.3700 C   0  0  0  0  0
    2.2110    2.4510    0.5430 C   0  0  0  0  0
    1.1750    1.6410   -0.2420 C   0  0  0  0  0
    1.8340    0.3690   -0.7800 C   0  0  0  0  0
    0.8220   -0.4160   -1.6160 C   0  0  0  0  0
    4.4080    3.4500    0.3710 O   0  0  0  0  0
    1.6230    3.6760    0.9880 O   0  0  0  0  0
    0.0910    1.2880    0.6210 O   0  0  0  0  0
    2.9530    0.7230   -1.5970 O   0  0  0  0  0
    1.4070   -1.6500   -2.0390 O   0  0  0  0  0
   -0.9140    2.2970    0.7340 C   0  0  0  0  0
   -1.0910    1.8400    3.1020 O   0  0  0  0  0
   -1.8500    1.9580    1.8970 C   0  0  0  0  0
   -7.9580   -1.6760   -0.3100 C   0  0  0  0  0
   -2.5550    0.6300    1.6040 C   0  0  0  0  0
   -3.4850    0.3410    2.6490 O   0  0  0  0  0
   -3.3010    0.7440    0.2710 C   0  0  0  0  0
   -3.9200   -0.5480   -0.0570 N   0  0  0  0  0
   -2.3090    1.1300   -0.8290 C   0  0  0  0  0
   -1.6670    2.3580   -0.4790 O   0  0  0  0  0
   -3.0570    1.3050   -2.1520 C   0  0  0  0  0
   -5.2860   -0.6280    0.4760 C   0  0  0  0  0
   -5.6900   -2.0970    0.6170 C   0  0  0  0  0
   -5.4190   -2.7890   -0.6030 O   0  0  0  0  0
   -7.1920   -2.1590    0.9230 C   0  0  0  0  0
   -7.4920   -1.3140    2.0360 O   0  0  0  0  0
   -7.8510   -2.6540   -1.3470 O   0  0  0  0  0
   -7.3900   -0.3740   -0.7940 C   0  0  0  0  0
   -6.2260    0.0800   -0.4550 C   0  0  0  0  0
   -8.2270    0.4570   -1.7320 C   0  0  0  0  0
   -7.5180    1.6490   -2.0750 O   0  0  0  0  0
    7.2420   -1.6430   -1.6960 H   0  0  0  0  0
    7.0720    0.4480    0.5250 H   0  0  0  0  0
    4.8810   -0.8680   -1.1480 H   0  0  0  0  0
    5.5490   -1.1200    1.8210 H   0  0  0  0  0
    3.1120   -1.2010    1.2360 H   0  0  0  0  0
    3.4570   -2.5290    0.1020 H   0  0  0  0  0
    7.8030   -1.8610    1.2980 H   0  0  0  0  0
    8.1490   -4.1400    0.6690 H   0  0  0  0  0
    9.5470   -1.5420   -1.0690 H   0  0  0  0  0
    7.6690    1.2770   -1.6380 H   0  0  0  0  0
    2.8220   -3.3400    2.2580 H   0  0  0  0  0
    4.7970    1.6550   -1.5890 H   0  0  0  0  0
    3.0720    3.3750   -1.2040 H   0  0  0  0  0
    2.5500    1.8740    1.4040 H   0  0  0  0  0
    0.7990    2.2380   -1.0730 H   0  0  0  0  0
    2.1730   -0.2460    0.0530 H   0  0  0  0  0
    0.5390    0.1700   -2.4900 H   0  0  0  0  0
   -0.0640   -0.6220   -1.0150 H   0  0  0  0  0
    5.1950    3.6720   -0.1460 H   0  0  0  0  0
    2.2270    4.2430    1.4870 H   0  0  0  0  0
    0.8200   -2.2000   -2.5740 H   0  0  0  0  0
   -0.4420    3.2630    0.9170 H   0  0  0  0  0
   -0.6140    2.6440    3.3460 H   0  0  0  0  0
   -2.5920    2.7480    2.0100 H   0  0  0  0  0
   -9.0080   -1.5390   -0.0530 H   0  0  0  0  0
   -1.8160   -0.1690    1.5410 H   0  0  0  0  0
   -3.0810    0.2620    3.5240 H   0  0  0  0  0
   -4.0740    1.5080    0.3500 H   0  0  0  0  0
   -3.9110   -0.7100   -1.0530 H   0  0  0  0  0
   -1.5610    0.3450   -0.9360 H   0  0  0  0  0
   -2.3700    1.6770   -2.9120 H   0  0  0  0  0
   -3.4640    0.3440   -2.4700 H   0  0  0  0  0
   -3.8720    2.0170   -2.0190 H   0  0  0  0  0
   -5.3190   -0.1480    1.4550 H   0  0  0  0  0
   -5.1310   -2.5540    1.4330 H   0  0  0  0  0
   -5.6520   -3.7270   -0.5830 H   0  0  0  0  0
   -7.4760   -3.1860    1.1560 H   0  0  0  0  0
   -8.4260   -1.3070    2.2840 H   0  0  0  0  0
   -8.3140   -2.4150   -2.1620 H   0  0  0  0  0
   -5.9120    1.0270   -0.8690 H   0  0  0  0  0
   -8.4360   -0.1150   -2.6360 H   0  0  0  0  0
   -9.1660    0.7200   -1.2440 H   0  0  0  0  0
   -7.9980    2.2330   -2.6770 H   0  0  0  0  0
  1  6  1  0  0  0
  1  2  1  0  0  0
  1 45  1  0  0  0
  2  3  1  0  0  0
  2 46  1  0  0  0
  3  4  1  0  0  0
  3 10  1  0  0  0
  3 47  1  0  0  0
  4  5  1  0  0  0
  4 48  1  0  0  0
  5 12  1  0  0  0
  5 49  1  0  0  0
  5 50  1  0  0  0
  6 11  1  0  0  0
  6 51  1  0  0  0
  7  6  1  0  0  0
  7 52  1  0  0  0
  8  1  1  0  0  0
  8 53  1  0  0  0
  9  2  1  0  0  0
  9 54  1  0  0  0
 10 13  1  0  0  0
 11  4  1  0  0  0
 12 55  1  0  0  0
 13 22  1  0  0  0
 13 14  1  0  0  0
 13 56  1  0  0  0
 14 57  1  0  0  0
 15 14  1  0  0  0
 15 16  1  0  0  0
 15 20  1  0  0  0
 15 58  1  0  0  0
 16 21  1  0  0  0
 16 59  1  0  0  0
 17 18  1  0  0  0
 17 22  1  0  0  0
 17 16  1  0  0  0
 17 60  1  0  0  0
 18 62  1  0  0  0
 18 61  1  0  0  0
 19 14  1  0  0  0
 19 63  1  0  0  0
 20 64  1  0  0  0
 21 24  1  0  0  0
 23 18  1  0  0  0
 23 65  1  0  0  0
 24 33  1  0  0  0
 24 26  1  0  0  0
 24 66  1  0  0  0
 25 67  1  0  0  0
 26 25  1  0  0  0
 26 28  1  0  0  0
 26 68  1  0  0  0
 27 41  1  0  0  0
 27 69  1  0  0  0
 28 30  1  0  0  0
 28 29  1  0  0  0
 28 70  1  0  0  0
 29 71  1  0  0  0
 30 31  1  0  0  0
 30 72  1  0  0  0
 31 35  1  0  0  0
 31 73  1  0  0  0
 32 30  1  0  0  0
 32 74  1  0  0  0
 33 32  1  0  0  0
 34 32  1  0  0  0
 34 77  1  0  0  0
 34 75  1  0  0  0
 34 76  1  0  0  0
 35 36  1  0  0  0
 35 42  1  0  0  0
 35 78  1  0  0  0
 36 38  1  0  0  0
 36 79  1  0  0  0
 37 36  1  0  0  0
 37 80  1  0  0  0
 38 39  1  0  0  0
 38 27  1  0  0  0
 38 81  1  0  0  0
 39 82  1  0  0  0
 40 27  1  0  0  0
 40 83  1  0  0  0
 41 43  1  0  0  0
 42 41  2  0  0  0
 42 84  1  0  0  0
 43 44  1  0  0  0
 43 85  1  0  0  0
 43 86  1  0  0  0
 44 87  1  0  0  0
M  END
$$$$
