QPT
  CCTOOLS-0919241038

 25 26  0  0  0  0  0  0  0  0999 V2000
    1.9870   -0.2890    1.7700 N   0  3  0  0  0
    1.0030    0.0280   -0.0470 PT  0  0  0  0  0
    2.3830    0.3950   -1.5720 N   0  3  0  0  0
    2.5280    0.5300    2.0060 H   0  0  0  0  0
    1.3080   -0.4640    2.4940 H   0  0  0  0  0
    2.9980   -0.3990   -1.6670 H   0  0  0  0  0
    1.8920    0.5450   -2.4410 H   0  0  0  0  0
   -0.1630   -1.5620   -0.5100 O   0  0  0  0  0
   -0.3050    1.5670    0.1130 O   0  0  0  0  0
   -1.5010    1.0990    0.6050 C   0  0  0  0  0
   -1.3870   -1.4240    0.1030 C   0  0  0  0  0
   -2.1180   -0.1060   -0.0590 C   0  0  0  0  0
   -2.0420    1.6380    1.5410 O   0  0  0  0  0
   -1.8620   -2.3250    0.7530 O   0  0  0  0  0
   -3.6240   -0.2290    0.2320 C   0  0  0  0  0
   -3.8550    0.6770   -0.9880 C   0  0  0  0  0
   -2.5070    0.1670   -1.5230 C   0  0  0  0  0
   -4.0120   -1.2400    0.1050 H   0  0  0  0  0
   -3.9250    0.2250    1.1770 H   0  0  0  0  0
   -4.7080    0.3790   -1.5980 H   0  0  0  0  0
   -3.8560    1.7410   -0.7480 H   0  0  0  0  0
   -1.9050    0.9420   -1.9980 H   0  0  0  0  0
   -2.5910   -0.7360   -2.1280 H   0  0  0  0  0
    2.6010   -1.0850    1.6850 H   0  0  0  0  0
    2.9250    1.2150   -1.3450 H   0  0  0  0  0
  1  2  1  0  0  0
  1  4  1  0  0  0
  1  5  1  0  0  0
  1 24  1  0  0  0
  2  3  1  0  0  0
  2  8  1  0  0  0
  2  9  1  0  0  0
  3  6  1  0  0  0
  3  7  1  0  0  0
  3 25  1  0  0  0
  8 11  1  0  0  0
  9 10  1  0  0  0
 10 12  1  0  0  0
 10 13  2  0  0  0
 11 14  2  0  0  0
 11 12  1  0  0  0
 12 17  1  0  0  0
 12 15  1  0  0  0
 15 16  1  0  0  0
 15 18  1  0  0  0
 15 19  1  0  0  0
 16 17  1  0  0  0
 16 20  1  0  0  0
 16 21  1  0  0  0
 17 22  1  0  0  0
 17 23  1  0  0  0
M  CHG  1   1   1
M  CHG  1   3   1
M  END
$$$$
