QUI
  CCTOOLS-1004241126

 19 20  0  0  0  0  0  0  0  0999 V2000
    0.8570    0.0040    0.4330 N   0  0  0  0  0
   -0.1290   -0.0000    1.3130 C   0  0  0  0  0
   -1.4710   -0.0000    0.9000 C   0  0  0  0  0
   -1.7920   -0.0000   -0.3720 N   0  0  0  0  0
   -1.1140    0.0000   -2.6700 C   0  0  0  0  0
   -0.0920    0.0000   -3.5700 C   0  0  0  0  0
    1.2390   -0.0000   -3.1640 C   0  0  0  0  0
    1.5840   -0.0010   -1.8480 C   0  0  0  0  0
    0.5740   -0.0010   -0.8680 C   0  0  0  0  0
   -0.8260   -0.0000   -1.2960 C   0  0  0  0  0
    0.1850   -0.0000    2.7600 C   0  0  0  0  0
   -0.7120    0.0000    3.5770 O   0  0  0  0  0
    1.4680   -0.0000    3.1700 O   0  0  0  0  0
   -2.2540   -0.0000    1.6430 H   0  0  0  0  0
   -2.1390    0.0000   -3.0110 H   0  0  0  0  0
   -0.3210    0.0010   -4.6250 H   0  0  0  0  0
    2.0170   -0.0000   -3.9120 H   0  0  0  0  0
    2.6240   -0.0010   -1.5580 H   0  0  0  0  0
    1.6740   -0.0000    4.1140 H   0  0  0  0  0
  1  2  2  0  0  0
  1  9  1  0  0  0
  2  3  1  0  0  0
  2 11  1  0  0  0
  3  4  2  0  0  0
  3 14  1  0  0  0
  4 10  1  0  0  0
  5  6  2  0  0  0
  5 10  1  0  0  0
  5 15  1  0  0  0
  6  7  1  0  0  0
  6 16  1  0  0  0
  7  8  2  0  0  0
  7 17  1  0  0  0
  8  9  1  0  0  0
  8 18  1  0  0  0
  9 10  2  0  0  0
 11 12  2  0  0  0
 11 13  1  0  0  0
 13 19  1  0  0  0
M  END
$$$$
