R3S
  CCTOOLS-0919241039

 33 34  0  0  0  0  0  0  0  0999 V2000
   -5.9680   -0.5420   -0.3840 C   0  0  0  0  0
   -4.6950   -1.0710   -0.3610 C   0  0  0  0  0
   -3.6070   -0.2550   -0.0380 C   0  0  0  0  0
   -3.8150    1.0940    0.2600 C   0  0  0  0  0
   -5.0910    1.6150    0.2350 C   0  0  0  0  0
   -6.1690    0.8010   -0.0920 C   0  0  0  0  0
   -2.2450   -0.8160   -0.0110 C   0  0  0  0  0
   -1.2010   -0.0310    0.2990 C   0  0  0  0  0
    0.1610   -0.5920    0.3250 C   0  0  0  0  0
    0.3690   -1.9410    0.0280 C   0  0  0  0  0
    1.6510   -2.4640    0.0540 C   0  0  0  0  0
    2.7280   -1.6500    0.3750 C   0  0  0  0  0
    2.5270   -0.3090    0.6710 C   0  0  0  0  0
    1.2490    0.2240    0.6420 C   0  0  0  0  0
    3.5860    0.4830    0.9850 O   0  0  0  0  0
    1.8550   -3.7760   -0.2350 O   0  0  0  0  0
   -7.4240    1.3200   -0.1210 O   0  0  0  0  0
    4.2270    1.1640   -0.2160 S   0  0  0  0  0
    4.2100    0.2140   -1.2720 O   0  0  0  0  0
    3.3010    2.2950   -0.6390 O   0  0  0  0  0
    5.4180    1.7770    0.2590 O   0  0  0  0  0
   -0.4680   -2.5760   -0.2210 H   0  0  0  0  0
   -6.8090   -1.1710   -0.6330 H   0  0  0  0  0
   -4.5400   -2.1150   -0.5910 H   0  0  0  0  0
    3.7270   -2.0610    0.3950 H   0  0  0  0  0
   -2.9780    1.7290    0.5110 H   0  0  0  0  0
    1.0930    1.2680    0.8730 H   0  0  0  0  0
   -5.2530    2.6570    0.4650 H   0  0  0  0  0
    2.0140   -3.9520   -1.1730 H   0  0  0  0  0
   -2.0860   -1.8600   -0.2420 H   0  0  0  0  0
   -7.8910    1.2690    0.7240 H   0  0  0  0  0
   -1.3600    1.0120    0.5290 H   0  0  0  0  0
    3.6170    2.7980   -1.4020 H   0  0  0  0  0
  1 23  1  0  0  0
  1  6  1  0  0  0
  2  1  2  0  0  0
  3  2  1  0  0  0
  3  4  2  0  0  0
  4  5  1  0  0  0
  5 28  1  0  0  0
  5  6  2  0  0  0
  6 17  1  0  0  0
  7  3  1  0  0  0
  8  7  2  0  0  0
  8 32  1  0  0  0
  9  8  1  0  0  0
 10  9  1  0  0  0
 10 22  1  0  0  0
 11 10  2  0  0  0
 12 11  1  0  0  0
 12 13  2  0  0  0
 13 14  1  0  0  0
 14  9  2  0  0  0
 14 27  1  0  0  0
 15 13  1  0  0  0
 15 18  1  0  0  0
 16 11  1  0  0  0
 17 31  1  0  0  0
 18 19  2  0  0  0
 18 20  1  0  0  0
 20 33  1  0  0  0
 21 18  2  0  0  0
 24  2  1  0  0  0
 25 12  1  0  0  0
 26  4  1  0  0  0
 29 16  1  0  0  0
 30  7  1  0  0  0
M  END
$$$$
