R3X
  CCTOOLS-0919241039

 49 51  0  0  1  0  0  0  0  0999 V2000
   -6.7490   -1.0890   -0.3450 C   0  0  0  0  0
   -8.0520   -0.7510   -0.0520 C   0  0  0  0  0
   -8.3360    0.4640    0.5580 C   0  0  0  0  0
   -9.6230    0.7920    0.8460 O   0  0  0  0  0
   -7.3090    1.3430    0.8760 C   0  0  0  0  0
   -6.0030    1.0150    0.5860 C   0  0  0  0  0
   -5.7120   -0.2070   -0.0280 C   0  0  0  0  0
   -4.3170   -0.5640   -0.3390 C   0  0  0  0  0
   -3.3220    0.2850   -0.0330 C   0  0  0  0  0
   -1.9260   -0.0720   -0.3440 C   0  0  0  0  0
   -0.8900    0.8090   -0.0270 C   0  0  0  0  0
   -1.6350   -1.2950   -0.9520 C   0  0  0  0  0
   -0.3220   -1.6260   -1.2420 C   0  0  0  0  0
   -0.0370   -2.8160   -1.8340 O   0  0  0  0  0
    0.7030   -0.7450   -0.9300 C   0  0  0  0  0
    0.4190    0.4690   -0.3210 C   0  0  0  0  0
    1.4280    1.3260   -0.0130 O   0  0  0  0  0
    2.7550    0.9120   -0.3440 C   0  0  0  0  0
    3.7350    2.0470   -0.0400 C   0  0  0  0  0
    5.1610    1.5750   -0.3410 C   0  0  0  0  0
    5.4550    0.3170    0.4820 C   0  0  0  0  0
    4.4080   -0.7520    0.1570 C   0  0  0  0  0
    4.6550   -1.9720    1.0070 C   0  0  0  0  0
    3.4250    3.1780   -0.8560 O   0  0  0  0  0
    6.0890    2.6030    0.0100 O   0  0  0  0  0
    6.7560   -0.1740    0.1550 O   0  0  0  0  0
    3.1030   -0.2370    0.4310 O   0  0  0  0  0
    5.7820   -2.6840    0.8470 O   0  0  0  0  0
    3.8390   -2.3090    1.8320 O   0  0  0  0  0
   -6.5280   -2.0360   -0.8160 H   0  0  0  0  0
   -8.8540   -1.4320   -0.2970 H   0  0  0  0  0
   -9.9150    0.5080    1.7230 H   0  0  0  0  0
   -7.5350    2.2870    1.3500 H   0  0  0  0  0
   -5.2050    1.6990    0.8320 H   0  0  0  0  0
   -4.0940   -1.5080   -0.8130 H   0  0  0  0  0
   -3.5450    1.2290    0.4410 H   0  0  0  0  0
   -1.1100    1.7550    0.4470 H   0  0  0  0  0
   -2.4320   -1.9820   -1.1950 H   0  0  0  0  0
   -0.0360   -2.7840   -2.8010 H   0  0  0  0  0
    1.7260   -1.0070   -1.1580 H   0  0  0  0  0
    2.8040    0.6640   -1.4050 H   0  0  0  0  0
    3.6580    2.3240    1.0120 H   0  0  0  0  0
    5.2530    1.3460   -1.4030 H   0  0  0  0  0
    2.5330    3.5280   -0.7210 H   0  0  0  0  0
    5.4120    0.5580    1.5440 H   0  0  0  0  0
    5.9570    3.4330   -0.4690 H   0  0  0  0  0
    4.4790   -1.0220   -0.8960 H   0  0  0  0  0
    7.0090   -0.9710    0.6400 H   0  0  0  0  0
    5.8960   -3.4580    1.4140 H   0  0  0  0  0
  1  2  1  0  0  0
  1  7  2  0  0  0
  1 30  1  0  0  0
  2  3  2  0  0  0
  2 31  1  0  0  0
  3  4  1  0  0  0
  3  5  1  0  0  0
  4 32  1  0  0  0
  5  6  2  0  0  0
  5 33  1  0  0  0
  6  7  1  0  0  0
  6 34  1  0  0  0
  7  8  1  0  0  0
  8  9  2  0  0  0
  8 35  1  0  0  0
  9 10  1  0  0  0
  9 36  1  0  0  0
 10 11  1  0  0  0
 10 12  2  0  0  0
 11 16  2  0  0  0
 11 37  1  0  0  0
 12 13  1  0  0  0
 12 38  1  0  0  0
 13 14  1  0  0  0
 13 15  2  0  0  0
 14 39  1  0  0  0
 15 16  1  0  0  0
 15 40  1  0  0  0
 16 17  1  0  0  0
 17 18  1  0  0  0
 18 19  1  0  0  0
 18 27  1  0  0  0
 18 41  1  0  0  0
 19 20  1  0  0  0
 19 24  1  0  0  0
 19 42  1  0  0  0
 20 21  1  0  0  0
 20 25  1  0  0  0
 20 43  1  0  0  0
 21 22  1  0  0  0
 21 26  1  0  0  0
 21 45  1  0  0  0
 22 23  1  0  0  0
 22 27  1  0  0  0
 22 47  1  0  0  0
 23 28  1  0  0  0
 23 29  2  0  0  0
 24 44  1  0  0  0
 25 46  1  0  0  0
 26 48  1  0  0  0
 28 49  1  0  0  0
M  END
$$$$
