R4G
  CCTOOLS-0919241040

 49 51  0  0  1  0  0  0  0  0999 V2000
   -5.5780   -1.4360   -0.7610 C   0  0  0  0  0
   -6.9460   -1.6500   -0.7560 C   0  0  0  0  0
   -7.4550   -2.8010   -1.2710 O   0  0  0  0  0
   -7.7990   -0.6920   -0.2270 C   0  0  0  0  0
   -7.2860    0.4840    0.3010 C   0  0  0  0  0
   -8.1270    1.4190    0.8180 O   0  0  0  0  0
   -5.9200    0.7080    0.3010 C   0  0  0  0  0
   -5.0570   -0.2530   -0.2310 C   0  0  0  0  0
   -3.6020   -0.0200   -0.2340 C   0  0  0  0  0
   -3.1030    1.1180    0.2760 C   0  0  0  0  0
   -1.6480    1.3500    0.2740 C   0  0  0  0  0
   -1.1270    2.5340    0.8040 C   0  0  0  0  0
    0.2340    2.7470    0.7990 C   0  0  0  0  0
   -0.7850    0.3860   -0.2530 C   0  0  0  0  0
    0.5750    0.6080   -0.2530 C   0  0  0  0  0
    1.0880    1.7880    0.2690 C   0  0  0  0  0
    2.4300    2.0030    0.2670 O   0  0  0  0  0
    3.2500    0.9760   -0.2930 C   0  0  0  0  0
    3.1460   -0.2050    0.5050 O   0  0  0  0  0
    3.9120   -1.3080    0.0160 C   0  0  0  0  0
    3.7050   -2.5000    0.9150 C   0  0  0  0  0
    4.2490   -3.6850    0.5940 O   0  0  0  0  0
    3.0500   -2.3900    1.9240 O   0  0  0  0  0
    5.3950   -0.9310    0.0010 C   0  0  0  0  0
    6.1570   -2.0120   -0.5410 O   0  0  0  0  0
    5.5880    0.3170   -0.8660 C   0  0  0  0  0
    6.9590    0.7190   -0.8270 O   0  0  0  0  0
    4.7070    1.4450   -0.3210 C   0  0  0  0  0
    4.8240    2.5920   -1.1640 O   0  0  0  0  0
   -4.9150   -2.1840   -1.1690 H   0  0  0  0  0
   -7.5390   -3.5170   -0.6260 H   0  0  0  0  0
   -8.8660   -0.8630   -0.2250 H   0  0  0  0  0
   -8.3070    1.3060    1.7610 H   0  0  0  0  0
   -5.5220    1.6240    0.7110 H   0  0  0  0  0
   -2.9360   -0.7650   -0.6450 H   0  0  0  0  0
   -3.7690    1.8620    0.6870 H   0  0  0  0  0
   -1.7900    3.2810    1.2150 H   0  0  0  0  0
   -1.1830   -0.5320   -0.6590 H   0  0  0  0  0
    0.6380    3.6620    1.2080 H   0  0  0  0  0
    1.2430   -0.1370   -0.6600 H   0  0  0  0  0
    2.9180    0.7590   -1.3090 H   0  0  0  0  0
    5.0270    1.7010    0.6900 H   0  0  0  0  0
    3.5890   -1.5550   -0.9950 H   0  0  0  0  0
    5.7290   -0.7240    1.0180 H   0  0  0  0  0
    4.0890   -4.4200    1.2010 H   0  0  0  0  0
    6.0780   -2.8370   -0.0440 H   0  0  0  0  0
    5.3030    0.0940   -1.8940 H   0  0  0  0  0
    7.1530    1.5050   -1.3550 H   0  0  0  0  0
    4.2880    3.3450   -0.8810 H   0  0  0  0  0
  1  2  1  0  0  0
  1  8  2  0  0  0
  1 30  1  0  0  0
  2  3  1  0  0  0
  2  4  2  0  0  0
  3 31  1  0  0  0
  4  5  1  0  0  0
  4 32  1  0  0  0
  5  6  1  0  0  0
  5  7  2  0  0  0
  6 33  1  0  0  0
  7  8  1  0  0  0
  7 34  1  0  0  0
  8  9  1  0  0  0
  9 10  2  0  0  0
  9 35  1  0  0  0
 10 11  1  0  0  0
 10 36  1  0  0  0
 11 12  1  0  0  0
 11 14  2  0  0  0
 12 13  2  0  0  0
 12 37  1  0  0  0
 13 16  1  0  0  0
 13 39  1  0  0  0
 14 15  1  0  0  0
 14 38  1  0  0  0
 15 16  2  0  0  0
 15 40  1  0  0  0
 16 17  1  0  0  0
 17 18  1  0  0  0
 18 19  1  0  0  0
 18 28  1  0  0  0
 18 41  1  0  0  0
 19 20  1  0  0  0
 20 21  1  0  0  0
 20 24  1  0  0  0
 20 43  1  0  0  0
 21 22  1  0  0  0
 21 23  2  0  0  0
 22 45  1  0  0  0
 24 25  1  0  0  0
 24 26  1  0  0  0
 24 44  1  0  0  0
 25 46  1  0  0  0
 26 27  1  0  0  0
 26 28  1  0  0  0
 26 47  1  0  0  0
 27 48  1  0  0  0
 28 29  1  0  0  0
 28 42  1  0  0  0
 29 49  1  0  0  0
M  END
$$$$
