R8G
  CCTOOLS-0919241040

134141  0  0  0  0  0  0  0  0999 V2000
   11.5470   -4.9130    0.4350 C   0  0  0  0  0
  -11.3840    5.8360    1.1500 C   0  0  0  0  0
    8.5870    6.6930    0.4250 C   0  0  0  0  0
   -6.8550   -9.0740   -2.3360 C   0  0  0  0  0
    0.4640    3.8890   -1.5830 O   0  0  0  0  0
   -0.7340   -3.7940    1.3840 O   0  0  0  0  0
    3.7540    0.9300   -1.2630 O   0  0  0  0  0
   -4.0210   -0.8320    1.0740 O   0  0  0  0  0
   -1.4790    2.1350   -0.5270 C   0  0  0  0  0
    1.2120   -2.0370    0.3400 C   0  0  0  0  0
    5.4320   -2.8450   -0.1470 C   0  0  0  0  0
   -5.6910    2.9580    0.0020 C   0  0  0  0  0
    3.6740    4.2100   -0.8470 C   0  0  0  0  0
   -3.9420   -4.1100    0.6450 C   0  0  0  0  0
    3.9370   -2.7220    0.1530 C   0  0  0  0  0
   -4.2000    2.8300   -0.3140 C   0  0  0  0  0
    5.9460   -4.1920    0.3660 C   0  0  0  0  0
   -6.2060    4.3060   -0.5070 C   0  0  0  0  0
    4.6510    5.2330   -1.4280 C   0  0  0  0  0
   -4.9210   -5.1350    1.2200 C   0  0  0  0  0
    9.3370   -5.7770   -0.0490 C   0  0  0  0  0
    9.6330   -3.4300    0.4630 C   0  0  0  0  0
   -9.7260    5.6440   -0.6040 C   0  0  0  0  0
   -9.3690    4.5460    1.5230 C   0  0  0  0  0
    6.5450    7.9900    0.3040 C   0  0  0  0  0
    6.6350    6.0000    1.6800 C   0  0  0  0  0
   -7.2720   -7.4700   -0.5700 C   0  0  0  0  0
   -5.1460   -7.4700   -1.7270 C   0  0  0  0  0
    7.8600   -5.6750    0.3370 C   0  0  0  0  0
    8.1560   -3.3280    0.8500 C   0  0  0  0  0
   -8.2210    5.5960   -0.8810 C   0  0  0  0  0
   -7.8650    4.4980    1.2470 C   0  0  0  0  0
    6.0080    7.1580   -0.8630 C   0  0  0  0  0
    6.0970    5.1690    0.5130 C   0  0  0  0  0
   -6.6300   -6.7390    0.6110 C   0  0  0  0  0
   -4.5040   -6.7390   -0.5450 C   0  0  0  0  0
    3.0520    3.3960   -1.9830 C   0  0  0  0  0
   -3.3210   -3.3000    1.7850 C   0  0  0  0  0
    3.4450   -1.4320   -0.3370 N   0  0  0  0  0
   -3.7070    1.5390    0.1740 N   0  0  0  0  0
    2.1110   -1.0940   -0.1780 C   0  0  0  0  0
   -2.3760    1.1960    0.0010 C   0  0  0  0  0
    0.8270    2.7730   -1.2660 C   0  0  0  0  0
   -1.0950   -2.6760    1.0740 C   0  0  0  0  0
    2.5790    1.1960   -1.0960 C   0  0  0  0  0
   -2.8460   -1.0970    0.9070 C   0  0  0  0  0
   -0.1460    1.8140   -0.7090 C   0  0  0  0  0
   -0.1210   -1.7150    0.5220 C   0  0  0  0  0
    1.6740    0.1830   -0.5340 C   0  0  0  0  0
   -1.9400   -0.0830    0.3520 C   0  0  0  0  0
    0.3140    0.5230   -0.3520 C   0  0  0  0  0
   -0.5800   -0.4220    0.1710 C   0  0  0  0  0
   10.1120   -4.7950    0.7230 N   0  0  0  0  0
   -9.9530    5.7130    0.8460 N   0  0  0  0  0
    7.3940    7.1440    1.1550 N   0  0  0  0  0
   -6.2600   -8.2970   -1.2410 N   0  0  0  0  0
    7.3810   -4.3100    0.0780 N   0  0  0  0  0
   -7.6380    4.4300   -0.2040 N   0  0  0  0  0
    5.2480    6.0150   -0.3370 N   0  0  0  0  0
   -5.5160   -5.9120    0.1250 N   0  0  0  0  0
    2.1150    2.4160   -1.4260 N   0  0  0  0  0
   -2.3840   -2.3190    1.2340 N   0  0  0  0  0
   11.7210   -4.7380   -0.6270 H   0  0  0  0  0
   12.0970   -4.1740    1.0190 H   0  0  0  0  0
   11.8900   -5.9130    0.6990 H   0  0  0  0  0
  -11.5190    5.9530    2.2250 H   0  0  0  0  0
  -11.7910    6.7080    0.6360 H   0  0  0  0  0
  -11.9060    4.9400    0.8130 H   0  0  0  0  0
    9.1660    7.5590    0.1050 H   0  0  0  0  0
    9.1980    6.0690    1.0780 H   0  0  0  0  0
    8.2830    6.1170   -0.4480 H   0  0  0  0  0
   -7.2920   -8.3940   -3.0680 H   0  0  0  0  0
   -6.0840   -9.6770   -2.8150 H   0  0  0  0  0
   -7.6320   -9.7270   -1.9380 H   0  0  0  0  0
   -1.8330    3.1190   -0.7980 H   0  0  0  0  0
    1.5660   -3.0200    0.6100 H   0  0  0  0  0
    5.5930   -2.7800   -1.2220 H   0  0  0  0  0
    5.9700   -2.0380    0.3510 H   0  0  0  0  0
   -6.2370    2.1520   -0.4870 H   0  0  0  0  0
   -5.8410    2.8970    1.0800 H   0  0  0  0  0
    4.2070    3.5420   -0.1700 H   0  0  0  0  0
    2.8870    4.7290   -0.2990 H   0  0  0  0  0
   -3.1550   -4.6270    0.0960 H   0  0  0  0  0
   -4.4730   -3.4390   -0.0300 H   0  0  0  0  0
    3.3990   -3.5290   -0.3450 H   0  0  0  0  0
    3.7750   -2.7870    1.2290 H   0  0  0  0  0
   -4.0500    2.8920   -1.3920 H   0  0  0  0  0
   -3.6540    3.6360    0.1750 H   0  0  0  0  0
    5.7840   -4.2570    1.4420 H   0  0  0  0  0
    5.4080   -4.9990   -0.1320 H   0  0  0  0  0
   -5.6600    5.1120   -0.0180 H   0  0  0  0  0
   -6.0570    4.3680   -1.5850 H   0  0  0  0  0
    5.4380    4.7140   -1.9760 H   0  0  0  0  0
    4.1180    5.9010   -2.1050 H   0  0  0  0  0
   -4.3890   -5.8060    1.8950 H   0  0  0  0  0
   -5.7080   -4.6170    1.7690 H   0  0  0  0  0
    9.7020   -6.7800    0.1700 H   0  0  0  0  0
    9.4500   -5.5730   -1.1140 H   0  0  0  0  0
    9.7490   -3.1990   -0.5960 H   0  0  0  0  0
   10.2130   -2.7220    1.0550 H   0  0  0  0  0
  -10.1560    6.5250   -1.0820 H   0  0  0  0  0
  -10.1980    4.7470   -1.0040 H   0  0  0  0  0
   -9.8370    3.6360    1.1480 H   0  0  0  0  0
   -9.5390    4.6260    2.5970 H   0  0  0  0  0
    7.1330    8.8220   -0.0830 H   0  0  0  0  0
    5.7120    8.3750    0.8910 H   0  0  0  0  0
    5.8020    6.3630    2.2830 H   0  0  0  0  0
    7.2890    5.3820    2.2960 H   0  0  0  0  0
   -8.0800   -8.1060   -0.2080 H   0  0  0  0  0
   -7.6720   -6.7410   -1.2750 H   0  0  0  0  0
   -5.5210   -6.7410   -2.4450 H   0  0  0  0  0
   -4.4030   -8.1060   -2.2080 H   0  0  0  0  0
    7.2800   -6.3830   -0.2550 H   0  0  0  0  0
    7.7440   -5.9060    1.3960 H   0  0  0  0  0
    8.0430   -3.5320    1.9140 H   0  0  0  0  0
    7.7910   -2.3240    0.6310 H   0  0  0  0  0
   -8.0510    5.5160   -1.9550 H   0  0  0  0  0
   -7.7530    6.5060   -0.5050 H   0  0  0  0  0
   -7.3930    5.3960    1.6460 H   0  0  0  0  0
   -7.4350    3.6180    1.7240 H   0  0  0  0  0
    5.3540    7.7760   -1.4790 H   0  0  0  0  0
    6.8400    6.7960   -1.4650 H   0  0  0  0  0
    6.9310    4.7840   -0.0740 H   0  0  0  0  0
    5.5100    4.3360    0.9000 H   0  0  0  0  0
   -7.3720   -6.1030    1.0920 H   0  0  0  0  0
   -6.2550   -7.4680    1.3290 H   0  0  0  0  0
   -4.1040   -7.4680    0.1600 H   0  0  0  0  0
   -3.6960   -6.1030   -0.9070 H   0  0  0  0  0
    2.5190    4.0640   -2.6590 H   0  0  0  0  0
    3.8380    2.8760   -2.5310 H   0  0  0  0  0
   -4.1090   -2.7830    2.3330 H   0  0  0  0  0
   -2.7900   -3.9720    2.4600 H   0  0  0  0  0
    4.0530   -0.8150   -0.7730 H   0  0  0  0  0
   -4.3120    0.9260    0.6190 H   0  0  0  0  0
  1 63  1  0  0  0
  1 64  1  0  0  0
  1 65  1  0  0  0
  2 54  1  0  0  0
  2 66  1  0  0  0
  2 67  1  0  0  0
  2 68  1  0  0  0
  3 69  1  0  0  0
  3 70  1  0  0  0
  3 71  1  0  0  0
  4 56  1  0  0  0
  4 72  1  0  0  0
  4 73  1  0  0  0
  4 74  1  0  0  0
  5 43  2  0  0  0
  8 46  2  0  0  0
  9 47  1  0  0  0
  9 75  1  0  0  0
 10 41  1  0  0  0
 10 76  1  0  0  0
 11 17  1  0  0  0
 11 77  1  0  0  0
 11 78  1  0  0  0
 12 16  1  0  0  0
 12 79  1  0  0  0
 12 80  1  0  0  0
 13 19  1  0  0  0
 13 81  1  0  0  0
 13 82  1  0  0  0
 14 20  1  0  0  0
 14 38  1  0  0  0
 14 83  1  0  0  0
 14 84  1  0  0  0
 15 11  1  0  0  0
 15 85  1  0  0  0
 15 86  1  0  0  0
 16 40  1  0  0  0
 16 87  1  0  0  0
 16 88  1  0  0  0
 17 57  1  0  0  0
 17 89  1  0  0  0
 17 90  1  0  0  0
 18 12  1  0  0  0
 18 91  1  0  0  0
 18 92  1  0  0  0
 19 59  1  0  0  0
 19 93  1  0  0  0
 19 94  1  0  0  0
 20 95  1  0  0  0
 20 96  1  0  0  0
 21 53  1  0  0  0
 21 97  1  0  0  0
 21 98  1  0  0  0
 22 99  1  0  0  0
 22100  1  0  0  0
 23 31  1  0  0  0
 23101  1  0  0  0
 23102  1  0  0  0
 24 32  1  0  0  0
 24103  1  0  0  0
 24104  1  0  0  0
 25 33  1  0  0  0
 25 55  1  0  0  0
 25105  1  0  0  0
 25106  1  0  0  0
 26 34  1  0  0  0
 26 55  1  0  0  0
 26107  1  0  0  0
 26108  1  0  0  0
 27 35  1  0  0  0
 27 56  1  0  0  0
 27109  1  0  0  0
 27110  1  0  0  0
 28 36  1  0  0  0
 28111  1  0  0  0
 28112  1  0  0  0
 29 57  1  0  0  0
 29 21  1  0  0  0
 29113  1  0  0  0
 29114  1  0  0  0
 30 22  1  0  0  0
 30115  1  0  0  0
 30116  1  0  0  0
 31 58  1  0  0  0
 31117  1  0  0  0
 31118  1  0  0  0
 32 58  1  0  0  0
 32119  1  0  0  0
 32120  1  0  0  0
 33121  1  0  0  0
 33122  1  0  0  0
 34123  1  0  0  0
 34124  1  0  0  0
 35 60  1  0  0  0
 35125  1  0  0  0
 35126  1  0  0  0
 36127  1  0  0  0
 36128  1  0  0  0
 37 13  1  0  0  0
 37129  1  0  0  0
 37130  1  0  0  0
 38 62  1  0  0  0
 38131  1  0  0  0
 38132  1  0  0  0
 39 15  1  0  0  0
 39133  1  0  0  0
 40 42  1  0  0  0
 40134  1  0  0  0
 41 39  1  0  0  0
 42  9  2  0  0  0
 42 50  1  0  0  0
 43 61  1  0  0  0
 44 48  1  0  0  0
 44  6  2  0  0  0
 45  7  2  0  0  0
 46 50  1  0  0  0
 46 62  1  0  0  0
 47 43  1  0  0  0
 47 51  2  0  0  0
 48 10  2  0  0  0
 49 45  1  0  0  0
 49 41  2  0  0  0
 50 52  2  0  0  0
 51 49  1  0  0  0
 52 51  1  0  0  0
 52 48  1  0  0  0
 53  1  1  0  0  0
 53 22  1  0  0  0
 54 24  1  0  0  0
 54 23  1  0  0  0
 55  3  1  0  0  0
 56 28  1  0  0  0
 57 30  1  0  0  0
 58 18  1  0  0  0
 59 33  1  0  0  0
 59 34  1  0  0  0
 60 20  1  0  0  0
 60 36  1  0  0  0
 61 37  1  0  0  0
 61 45  1  0  0  0
 62 44  1  0  0  0
M  END
$$$$
