RAM
  CCTOOLS-1004241127

 23 23  0  0  1  0  0  0  0  0999 V2000
    1.6230   -0.1170   -0.5200 C   0  0  0  0  0
    0.4410    0.0390   -1.4790 C   0  0  0  0  0
   -0.8200   -0.5180   -0.8110 C   0  0  0  0  0
   -0.9920    0.1580    0.5520 C   0  0  0  0  0
    0.2980   -0.0080    1.3580 C   0  0  0  0  0
    0.1240    0.6340    2.7360 C   0  0  0  0  0
    1.7910   -1.4990   -0.1970 O   0  0  0  0  0
    0.2520    1.4220   -1.7820 O   0  0  0  0  0
   -1.9580   -0.2450   -1.6320 O   0  0  0  0  0
   -2.0770   -0.4500    1.2550 O   0  0  0  0  0
    1.3780    0.6220    0.6730 O   0  0  0  0  0
    2.5290    0.2540   -0.9980 H   0  0  0  0  0
    0.6410   -0.5110   -2.3980 H   0  0  0  0  0
   -0.7170   -1.5950   -0.6760 H   0  0  0  0  0
   -1.1990    1.2190    0.4090 H   0  0  0  0  0
    0.5150   -1.0690    1.4780 H   0  0  0  0  0
    1.0420    0.5130    3.3110 H   0  0  0  0  0
   -0.0920    1.6950    2.6170 H   0  0  0  0  0
   -0.6990    0.1510    3.2610 H   0  0  0  0  0
    2.5470   -1.5560    0.4030 H   0  0  0  0  0
    1.0700    1.7330   -2.1940 H   0  0  0  0  0
   -1.8000   -0.6790   -2.4820 H   0  0  0  0  0
   -2.1490    0.0050    2.1060 H   0  0  0  0  0
  1  2  1  0  0  0
  1  7  1  0  0  0
  1 11  1  0  0  0
  1 12  1  0  0  0
  2  3  1  0  0  0
  2  8  1  0  0  0
  2 13  1  0  0  0
  3  4  1  0  0  0
  3  9  1  0  0  0
  3 14  1  0  0  0
  4  5  1  0  0  0
  4 10  1  0  0  0
  4 15  1  0  0  0
  5  6  1  0  0  0
  5 11  1  0  0  0
  5 16  1  0  0  0
  6 17  1  0  0  0
  6 18  1  0  0  0
  6 19  1  0  0  0
  7 20  1  0  0  0
  8 21  1  0  0  0
  9 22  1  0  0  0
 10 23  1  0  0  0
M  END
$$$$
