RBF
  CCTOOLS-0919241041

 47 49  0  0  1  0  0  0  0  0999 V2000
    0.6650   -2.4850    0.5130 N   0  0  0  0  0
    1.3120   -3.6110    0.2220 C   0  0  0  0  0
    0.7410   -4.6680    0.4280 O   0  0  0  0  0
    2.5520   -3.6550   -0.2850 N   0  0  0  0  0
    3.2480   -2.5230   -0.5400 C   0  0  0  0  0
    4.3730   -2.5610   -1.0000 O   0  0  0  0  0
    2.5810   -1.2380   -0.2360 C   0  0  0  0  0
    3.1620   -0.0840   -0.4440 N   0  0  0  0  0
    2.5300    1.0610   -0.1570 C   0  0  0  0  0
    3.1740    2.2930   -0.3880 C   0  0  0  0  0
    2.5330    3.4600   -0.0980 C   0  0  0  0  0
    3.2280    4.7730   -0.3480 C   0  0  0  0  0
    1.2450    3.4520    0.4260 C   0  0  0  0  0
    0.5580    4.7570    0.7380 C   0  0  0  0  0
    0.5910    2.2630    0.6630 C   0  0  0  0  0
    1.2210    1.0560    0.3760 C   0  0  0  0  0
    0.5710   -0.1370    0.6110 N   0  0  0  0  0
    1.2180   -1.2990    0.3180 C   0  0  0  0  0
   -0.7860   -0.1540    1.1640 C   0  0  0  0  0
   -1.8030   -0.1270    0.0210 C   0  0  0  0  0
   -1.6180    1.0610   -0.7520 O   0  0  0  0  0
   -3.2200   -0.1450    0.5980 C   0  0  0  0  0
   -3.4040   -1.3320    1.3710 O   0  0  0  0  0
   -4.2360   -0.1170   -0.5450 C   0  0  0  0  0
   -4.0520    1.0700   -1.3190 O   0  0  0  0  0
   -5.6530   -0.1350    0.0320 C   0  0  0  0  0
   -6.6010   -0.2270   -1.0340 O   0  0  0  0  0
    2.9590   -4.5160   -0.4720 H   0  0  0  0  0
    4.1740    2.3120   -0.7950 H   0  0  0  0  0
    3.0070    5.1140   -1.3600 H   0  0  0  0  0
    2.8740    5.5140    0.3690 H   0  0  0  0  0
    4.3040    4.6430   -0.2350 H   0  0  0  0  0
    0.0050    5.0950   -0.1380 H   0  0  0  0  0
   -0.1310    4.6150    1.5710 H   0  0  0  0  0
    1.3040    5.5040    1.0080 H   0  0  0  0  0
   -0.4090    2.2680    1.0710 H   0  0  0  0  0
   -0.9270   -1.0600    1.7540 H   0  0  0  0  0
   -0.9310    0.7190    1.7990 H   0  0  0  0  0
   -1.6580   -1.0000   -0.6150 H   0  0  0  0  0
   -1.7320    1.8790   -0.2500 H   0  0  0  0  0
   -3.3640    0.7290    1.2340 H   0  0  0  0  0
   -3.2900   -2.1510    0.8680 H   0  0  0  0  0
   -4.0920   -0.9910   -1.1810 H   0  0  0  0  0
   -4.1660    1.8880   -0.8160 H   0  0  0  0  0
   -5.7650   -0.9950    0.6930 H   0  0  0  0  0
   -5.8280    0.7810    0.5950 H   0  0  0  0  0
   -7.5220   -0.2440   -0.7410 H   0  0  0  0  0
  1  2  1  0  0  0
  1 18  2  0  0  0
  2  3  2  0  0  0
  2  4  1  0  0  0
  4  5  1  0  0  0
  4 28  1  0  0  0
  5  6  2  0  0  0
  5  7  1  0  0  0
  7  8  2  0  0  0
  7 18  1  0  0  0
  8  9  1  0  0  0
  9 10  2  0  0  0
  9 16  1  0  0  0
 10 11  1  0  0  0
 10 29  1  0  0  0
 11 12  1  0  0  0
 11 13  2  0  0  0
 12 30  1  0  0  0
 12 31  1  0  0  0
 12 32  1  0  0  0
 13 14  1  0  0  0
 13 15  1  0  0  0
 14 33  1  0  0  0
 14 34  1  0  0  0
 14 35  1  0  0  0
 15 16  2  0  0  0
 15 36  1  0  0  0
 16 17  1  0  0  0
 17 18  1  0  0  0
 17 19  1  0  0  0
 19 20  1  0  0  0
 19 37  1  0  0  0
 19 38  1  0  0  0
 20 21  1  0  0  0
 20 22  1  0  0  0
 20 39  1  0  0  0
 21 40  1  0  0  0
 22 23  1  0  0  0
 22 24  1  0  0  0
 22 41  1  0  0  0
 23 42  1  0  0  0
 24 25  1  0  0  0
 24 26  1  0  0  0
 24 43  1  0  0  0
 25 44  1  0  0  0
 26 27  1  0  0  0
 26 45  1  0  0  0
 26 46  1  0  0  0
 27 47  1  0  0  0
M  END
$$$$
