RCY
  CCTOOLS-1004241127

 36 37  0  0  1  0  0  0  0  0999 V2000
   -0.2920   -0.5710    1.6120 C   0  0  0  0  0
    0.5870    2.0500    0.3820 O   0  0  0  0  0
    2.6510   -1.7480   -0.8760 O   0  0  0  0  0
   -2.9510   -0.8940    1.1390 O   0  0  0  0  0
    2.9260    1.4750    0.6630 C   0  0  0  0  0
   -0.7650    0.7060   -1.3760 C   0  0  0  0  0
    1.4920    1.2590    0.2300 C   0  0  0  0  0
    2.5250   -0.6400   -0.3990 C   0  0  0  0  0
    1.3830    0.0560   -0.3470 N   0  0  0  0  0
    3.6330    0.1740    0.2320 C   0  0  0  0  0
    0.1160   -0.4570   -0.8760 C   0  0  0  0  0
   -0.5140   -2.6450    0.2130 C   0  0  0  0  0
   -2.1130   -0.7710   -0.0540 N   0  0  0  0  0
   -2.0430    0.6410   -0.5120 C   0  0  0  0  0
   -0.7030   -1.1270    0.2480 C   0  0  0  0  0
   -3.2730    0.9900   -1.3520 C   0  0  0  0  0
   -1.9260    1.5850    0.6860 C   0  0  0  0  0
    0.0750    0.4490    1.4930 H   0  0  0  0  0
   -1.1530   -0.5710    2.2800 H   0  0  0  0  0
    0.4970   -1.1930    2.0360 H   0  0  0  0  0
    3.3570    2.3340    0.1480 H   0  0  0  0  0
    2.9860    1.6040    1.7430 H   0  0  0  0  0
   -0.2560    1.6580   -1.2270 H   0  0  0  0  0
   -1.0130    0.5680   -2.4280 H   0  0  0  0  0
    4.4160    0.3860   -0.4970 H   0  0  0  0  0
    4.0450   -0.3450    1.0980 H   0  0  0  0  0
    0.3030   -1.1640   -1.6840 H   0  0  0  0  0
   -1.1210   -3.1050    0.9930 H   0  0  0  0  0
   -0.8220   -3.0270   -0.7600 H   0  0  0  0  0
    0.5360   -2.8850    0.3810 H   0  0  0  0  0
   -3.3650    0.2820   -2.1750 H   0  0  0  0  0
   -4.1660    0.9400   -0.7270 H   0  0  0  0  0
   -3.1660    1.9990   -1.7500 H   0  0  0  0  0
   -1.8910    2.6160    0.3330 H   0  0  0  0  0
   -2.7900    1.4540    1.3380 H   0  0  0  0  0
   -1.0150    1.3590    1.2400 H   0  0  0  0  0
  1 15  1  0  0  0
  1 18  1  0  0  0
  1 19  1  0  0  0
  1 20  1  0  0  0
  2  7  2  0  0  0
  3  8  2  0  0  0
  4 13  1  0  0  0
  5  7  1  0  0  0
  5 10  1  0  0  0
  5 21  1  0  0  0
  5 22  1  0  0  0
  6 11  1  0  0  0
  6 14  1  0  0  0
  6 23  1  0  0  0
  6 24  1  0  0  0
  7  9  1  0  0  0
  8  9  1  0  0  0
  8 10  1  0  0  0
  9 11  1  0  0  0
 10 25  1  0  0  0
 10 26  1  0  0  0
 11 15  1  0  0  0
 11 27  1  0  0  0
 12 15  1  0  0  0
 12 28  1  0  0  0
 12 29  1  0  0  0
 12 30  1  0  0  0
 13 14  1  0  0  0
 13 15  1  0  0  0
 14 16  1  0  0  0
 14 17  1  0  0  0
 16 31  1  0  0  0
 16 32  1  0  0  0
 16 33  1  0  0  0
 17 34  1  0  0  0
 17 35  1  0  0  0
 17 36  1  0  0  0
M  END
$$$$
