RDE
  CCTOOLS-0919241041

 47 48  0  0  0  0  0  0  0  0999 V2000
    3.2650   -0.7790   -3.0580 C   0  0  0  0  0
    3.0060   -1.4100   -1.8030 O   0  0  0  0  0
    3.5610   -0.6210   -0.8430 C   0  0  0  0  0
    4.9040   -0.7690   -0.5140 C   0  0  0  0  0
    5.6630   -1.6980   -1.1540 O   0  0  0  0  0
    6.9800   -1.6040   -0.6070 C   0  0  0  0  0
    5.4700    0.0340    0.4640 C   0  0  0  0  0
    4.6960    0.9820    1.1160 C   0  0  0  0  0
    5.2680    1.7950    2.1050 N   0  0  0  0  0
    3.3500    1.1250    0.7890 C   0  0  0  0  0
    2.5890    2.0550    1.4290 O   0  0  0  0  0
    2.7460    3.2810    0.7120 C   0  0  0  0  0
    2.7850    0.3220   -0.1870 C   0  0  0  0  0
    1.3290    0.4770   -0.5420 C   0  0  0  0  0
    0.4810   -0.3860    0.3950 C   0  0  0  0  0
   -0.9270   -0.1540    0.1250 O   0  0  0  0  0
   -1.8660   -0.8110    0.8340 C   0  0  0  0  0
   -1.5340   -1.5970    1.7000 O   0  0  0  0  0
   -3.2920   -0.5760    0.5600 C   0  0  0  0  0
   -3.6770    0.3280   -0.4360 C   0  0  0  0  0
   -5.0120    0.5440   -0.6890 C   0  0  0  0  0
   -5.4880    1.6660   -1.9250 CL  0  0  0  0  0
   -5.9840   -0.1340    0.0440 C   0  0  0  0  0
   -7.2980    0.0840   -0.2120 O   0  0  0  0  0
   -5.6130   -1.0320    1.0330 C   0  0  0  0  0
   -4.2730   -1.2630    1.2940 C   0  0  0  0  0
   -3.9090   -2.1410    2.2610 O   0  0  0  0  0
    2.7650   -1.3310   -3.8530 H   0  0  0  0  0
    2.8890    0.2440   -3.0340 H   0  0  0  0  0
    4.3390   -0.7670   -3.2440 H   0  0  0  0  0
    6.9440   -1.8060    0.4630 H   0  0  0  0  0
    7.6280   -2.3340   -1.0930 H   0  0  0  0  0
    7.3730   -0.6010   -0.7750 H   0  0  0  0  0
    6.5140   -0.0780    0.7170 H   0  0  0  0  0
    4.7260    2.4580    2.5610 H   0  0  0  0  0
    6.2060    1.6950    2.3320 H   0  0  0  0  0
    3.8040    3.5370    0.6560 H   0  0  0  0  0
    2.3460    3.1660   -0.2960 H   0  0  0  0  0
    2.2060    4.0750    1.2270 H   0  0  0  0  0
    1.0390    1.5220   -0.4350 H   0  0  0  0  0
    1.1700    0.1590   -1.5720 H   0  0  0  0  0
    0.7150   -1.4380    0.2310 H   0  0  0  0  0
    0.7010   -0.1220    1.4300 H   0  0  0  0  0
   -2.9270    0.8560   -1.0060 H   0  0  0  0  0
   -7.5610   -0.5550   -0.8890 H   0  0  0  0  0
   -6.3700   -1.5550    1.5980 H   0  0  0  0  0
   -3.8300   -3.0070    1.8380 H   0  0  0  0  0
  1  2  1  0  0  0
  1 28  1  0  0  0
  1 29  1  0  0  0
  1 30  1  0  0  0
  2  3  1  0  0  0
  3  4  1  0  0  0
  3 13  2  0  0  0
  4  5  1  0  0  0
  4  7  2  0  0  0
  5  6  1  0  0  0
  6 31  1  0  0  0
  6 32  1  0  0  0
  6 33  1  0  0  0
  7  8  1  0  0  0
  7 34  1  0  0  0
  8  9  1  0  0  0
  8 10  2  0  0  0
  9 35  1  0  0  0
  9 36  1  0  0  0
 10 11  1  0  0  0
 10 13  1  0  0  0
 11 12  1  0  0  0
 12 37  1  0  0  0
 12 38  1  0  0  0
 12 39  1  0  0  0
 13 14  1  0  0  0
 14 15  1  0  0  0
 14 40  1  0  0  0
 14 41  1  0  0  0
 15 16  1  0  0  0
 15 42  1  0  0  0
 15 43  1  0  0  0
 16 17  1  0  0  0
 17 18  2  0  0  0
 17 19  1  0  0  0
 19 20  1  0  0  0
 19 26  2  0  0  0
 20 21  2  0  0  0
 20 44  1  0  0  0
 21 22  1  0  0  0
 21 23  1  0  0  0
 23 24  1  0  0  0
 23 25  2  0  0  0
 24 45  1  0  0  0
 25 26  1  0  0  0
 25 46  1  0  0  0
 26 27  1  0  0  0
 27 47  1  0  0  0
M  END
$$$$
