REA
  CCTOOLS-0919241041

 50 50  0  0  0  0  0  0  0  0999 V2000
   -4.6840    0.9320   -0.4970 C   0  0  0  0  0
   -5.8370    0.1900   -1.1760 C   0  0  0  0  0
   -6.4410   -0.7980   -0.1710 C   0  0  0  0  0
   -5.4180   -1.9030    0.1000 C   0  0  0  0  0
   -4.0820   -1.3010    0.4290 C   0  0  0  0  0
   -3.7560   -0.0480    0.1610 C   0  0  0  0  0
   -2.4570    0.3960    0.5160 C   0  0  0  0  0
   -1.3630   -0.2290    0.0070 C   0  0  0  0  0
   -0.0760    0.2570    0.2980 C   0  0  0  0  0
    1.0220   -0.3700   -0.2130 C   0  0  0  0  0
    2.3060    0.1150    0.0770 C   0  0  0  0  0
    3.4050   -0.5130   -0.4350 C   0  0  0  0  0
    4.6890   -0.0280   -0.1440 C   0  0  0  0  0
    5.7870   -0.6550   -0.6560 C   0  0  0  0  0
    7.0770   -0.2650   -0.2440 C   0  0  0  0  0
   -5.2460    1.8860    0.5590 C   0  0  0  0  0
   -3.9110    1.7370   -1.5440 C   0  0  0  0  0
   -3.0560   -2.1750    1.1030 C   0  0  0  0  0
    0.0900    1.4710    1.1750 C   0  0  0  0  0
    4.8550    1.1860    0.7330 C   0  0  0  0  0
    7.2100    0.5530    0.6480 O   0  0  0  0  0
    8.1660   -0.7980   -0.8400 O   0  0  0  0  0
   -6.5980    0.9050   -1.4900 H   0  0  0  0  0
   -5.4620   -0.3530   -2.0440 H   0  0  0  0  0
   -6.6730   -0.2780    0.7590 H   0  0  0  0  0
   -7.3490   -1.2340   -0.5860 H   0  0  0  0  0
   -5.7560   -2.5110    0.9380 H   0  0  0  0  0
   -5.3220   -2.5310   -0.7860 H   0  0  0  0  0
   -2.3370    1.2300    1.1910 H   0  0  0  0  0
   -1.4820   -1.1000   -0.6220 H   0  0  0  0  0
    0.9030   -1.2410   -0.8420 H   0  0  0  0  0
    2.4250    0.9850    0.7060 H   0  0  0  0  0
    3.2860   -1.3830   -1.0630 H   0  0  0  0  0
    5.6670   -1.4510   -1.3760 H   0  0  0  0  0
   -5.8020    1.3160    1.3030 H   0  0  0  0  0
   -4.4260    2.4150    1.0440 H   0  0  0  0  0
   -5.9110    2.6050    0.0810 H   0  0  0  0  0
   -4.5980    2.3940   -2.0770 H   0  0  0  0  0
   -3.1460    2.3350   -1.0500 H   0  0  0  0  0
   -3.4390    1.0540   -2.2510 H   0  0  0  0  0
   -3.4480   -3.1870    1.2010 H   0  0  0  0  0
   -2.1450   -2.1940    0.5030 H   0  0  0  0  0
   -2.8310   -1.7750    2.0920 H   0  0  0  0  0
    0.1710    1.1590    2.2160 H   0  0  0  0  0
    0.9930    2.0080    0.8850 H   0  0  0  0  0
   -0.7740    2.1250    1.0580 H   0  0  0  0  0
    5.0260    0.8710    1.7620 H   0  0  0  0  0
    5.7070    1.7710    0.3860 H   0  0  0  0  0
    3.9520    1.7950    0.6850 H   0  0  0  0  0
    9.0060   -0.4690   -0.4900 H   0  0  0  0  0
  1  2  1  0  0  0
  1  6  1  0  0  0
  1 16  1  0  0  0
  1 17  1  0  0  0
  2  3  1  0  0  0
  2 23  1  0  0  0
  2 24  1  0  0  0
  3  4  1  0  0  0
  3 25  1  0  0  0
  3 26  1  0  0  0
  4  5  1  0  0  0
  4 27  1  0  0  0
  4 28  1  0  0  0
  5  6  2  0  0  0
  5 18  1  0  0  0
  6  7  1  0  0  0
  7  8  2  0  0  0
  7 29  1  0  0  0
  8  9  1  0  0  0
  8 30  1  0  0  0
  9 10  2  0  0  0
  9 19  1  0  0  0
 10 11  1  0  0  0
 10 31  1  0  0  0
 11 12  2  0  0  0
 11 32  1  0  0  0
 12 13  1  0  0  0
 12 33  1  0  0  0
 13 14  2  0  0  0
 13 20  1  0  0  0
 14 15  1  0  0  0
 14 34  1  0  0  0
 15 21  2  0  0  0
 15 22  1  0  0  0
 16 35  1  0  0  0
 16 36  1  0  0  0
 16 37  1  0  0  0
 17 38  1  0  0  0
 17 39  1  0  0  0
 17 40  1  0  0  0
 18 41  1  0  0  0
 18 42  1  0  0  0
 18 43  1  0  0  0
 19 44  1  0  0  0
 19 45  1  0  0  0
 19 46  1  0  0  0
 20 47  1  0  0  0
 20 48  1  0  0  0
 20 49  1  0  0  0
 22 50  1  0  0  0
M  END
$$$$
