REC
  CCTOOLS-1004241127

 47 47  0  0  1  0  0  0  0  0999 V2000
   -4.3850   -3.8230   -0.0520 O   0  0  0  0  0
   -3.5340   -2.9700    0.0880 C   0  0  0  0  0
   -2.2420   -3.3240    0.2210 O   0  0  0  0  0
   -3.9170   -1.5330    0.1050 C   0  0  0  0  0
   -2.9970   -0.6950    0.3870 N   0  0  0  0  0
   -5.3150   -1.2150   -0.2090 C   0  0  0  0  0
   -6.1140   -2.1420   -0.7290 C   0  0  0  0  0
   -5.8380    0.1810    0.0650 C   0  0  0  0  0
   -4.5370    1.3420   -0.4650 S   0  0  0  0  0
   -3.1120    0.7510    0.4910 C   0  0  0  0  0
   -1.8360    1.4000   -0.0500 C   0  0  0  0  0
   -1.9000    2.8900    0.1690 C   0  0  0  0  0
   -1.0600    3.4380    0.8430 O   0  0  0  0  0
   -0.6740    0.8520    0.6540 N   0  0  0  0  0
    0.5370    0.8600    0.0620 C   0  0  0  0  0
    0.6640    1.3210   -1.0530 O   0  0  0  0  0
    1.7330    0.2970    0.7850 C   0  0  0  0  0
    2.9730    0.4270   -0.1010 C   0  0  0  0  0
    4.1870   -0.1450    0.6340 C   0  0  0  0  0
    5.4280   -0.0150   -0.2530 C   0  0  0  0  0
    6.6420   -0.5870    0.4820 C   0  0  0  0  0
    6.4570   -2.0300    0.6820 N   0  0  0  0  0
    7.8830   -0.3480   -0.3380 C   0  0  0  0  0
    8.3420   -1.2390   -1.0140 O   0  0  0  0  0
    8.4800    0.8540   -0.3180 O   0  0  0  0  0
   -2.8890    3.6080   -0.3850 O   0  0  0  0  0
   -2.0420   -4.2700    0.1990 H   0  0  0  0  0
   -3.2390    1.0280    1.5370 H   0  0  0  0  0
   -5.7090   -3.0970   -1.0300 H   0  0  0  0  0
   -7.1680   -1.9400   -0.8490 H   0  0  0  0  0
   -6.7500    0.3570   -0.5060 H   0  0  0  0  0
   -6.0350    0.3030    1.1300 H   0  0  0  0  0
   -1.7470    1.1930   -1.1160 H   0  0  0  0  0
   -0.7760    0.4840    1.5450 H   0  0  0  0  0
   -2.8880    4.5600   -0.2170 H   0  0  0  0  0
    1.8900    0.8480    1.7130 H   0  0  0  0  0
    1.5580   -0.7550    1.0130 H   0  0  0  0  0
    2.8170   -0.1240   -1.0280 H   0  0  0  0  0
    3.1480    1.4790   -0.3280 H   0  0  0  0  0
    4.3440    0.4060    1.5610 H   0  0  0  0  0
    4.0120   -1.1970    0.8610 H   0  0  0  0  0
    5.2710   -0.5660   -1.1800 H   0  0  0  0  0
    5.6030    1.0370   -0.4800 H   0  0  0  0  0
    6.7460   -0.0960    1.4490 H   0  0  0  0  0
    6.3590   -2.5080   -0.2010 H   0  0  0  0  0
    7.2160   -2.4200    1.2220 H   0  0  0  0  0
    9.2740    0.9600   -0.8610 H   0  0  0  0  0
  1  2  2  0  0  0
  2  3  1  0  0  0
  2  4  1  0  0  0
  3 27  1  0  0  0
  4  5  2  0  0  0
  4  6  1  0  0  0
  5 10  1  0  0  0
  6  7  2  0  0  0
  6  8  1  0  0  0
  7 29  1  0  0  0
  7 30  1  0  0  0
  8  9  1  0  0  0
  8 31  1  0  0  0
  8 32  1  0  0  0
  9 10  1  0  0  0
 10 11  1  0  0  0
 10 28  1  0  0  0
 11 12  1  0  0  0
 11 14  1  0  0  0
 11 33  1  0  0  0
 12 13  2  0  0  0
 12 26  1  0  0  0
 14 15  1  0  0  0
 14 34  1  0  0  0
 15 16  2  0  0  0
 15 17  1  0  0  0
 17 18  1  0  0  0
 17 36  1  0  0  0
 17 37  1  0  0  0
 18 19  1  0  0  0
 18 38  1  0  0  0
 18 39  1  0  0  0
 19 20  1  0  0  0
 19 40  1  0  0  0
 19 41  1  0  0  0
 20 21  1  0  0  0
 20 42  1  0  0  0
 20 43  1  0  0  0
 21 22  1  0  0  0
 21 23  1  0  0  0
 21 44  1  0  0  0
 22 45  1  0  0  0
 22 46  1  0  0  0
 23 24  2  0  0  0
 23 25  1  0  0  0
 25 47  1  0  0  0
 26 35  1  0  0  0
M  END
$$$$
