RER
  CCTOOLS-1004241127

 26 26  0  0  1  0  0  0  0  0999 V2000
    0.0460   -1.5270   -0.8320 C   0  0  0  0  0
   -1.0690   -0.5040   -1.0610 C   0  0  0  0  0
   -1.1420    0.4390    0.1440 C   0  0  0  0  0
   -2.1590    1.4700   -0.1000 N   0  0  0  0  0
   -1.5120   -0.3590    1.3970 C   0  0  0  0  0
    0.2240    1.1030    0.3420 C   0  0  0  0  0
    0.5370    1.9000   -0.8020 O   0  0  0  0  0
    1.2900    0.0180    0.5160 C   0  0  0  0  0
    1.2830   -0.8420   -0.6240 O   0  0  0  0  0
    2.6660    0.6720    0.6540 C   0  0  0  0  0
   -0.2600   -2.3170    0.3190 O   0  0  0  0  0
    0.1310   -2.1740   -1.7050 H   0  0  0  0  0
   -0.8570    0.0710   -1.9620 H   0  0  0  0  0
   -2.0210   -1.0230   -1.1750 H   0  0  0  0  0
    0.4060   -2.9880    0.5240 H   0  0  0  0  0
   -3.0680    1.0550   -0.2400 H   0  0  0  0  0
   -2.1810    2.1410    0.6530 H   0  0  0  0  0
   -0.6770   -1.0010    1.6780 H   0  0  0  0  0
   -1.7320    0.3290    2.2130 H   0  0  0  0  0
   -2.3880   -0.9730    1.1910 H   0  0  0  0  0
    0.1970    1.7350    1.2300 H   0  0  0  0  0
    1.3900    2.3520   -0.7450 H   0  0  0  0  0
    1.0720   -0.5640    1.4120 H   0  0  0  0  0
    2.6700    1.3290    1.5240 H   0  0  0  0  0
    3.4250   -0.1000    0.7790 H   0  0  0  0  0
    2.8830    1.2540   -0.2410 H   0  0  0  0  0
  1  2  1  0  0  0
  1  9  1  0  0  0
  1 11  1  0  0  0
  1 12  1  0  0  0
  2  3  1  0  0  0
  2 13  1  0  0  0
  2 14  1  0  0  0
  3  4  1  0  0  0
  3  5  1  0  0  0
  3  6  1  0  0  0
  4 16  1  0  0  0
  4 17  1  0  0  0
  5 18  1  0  0  0
  5 19  1  0  0  0
  5 20  1  0  0  0
  6  7  1  0  0  0
  6  8  1  0  0  0
  6 21  1  0  0  0
  7 22  1  0  0  0
  8  9  1  0  0  0
  8 10  1  0  0  0
  8 23  1  0  0  0
 10 24  1  0  0  0
 10 25  1  0  0  0
 10 26  1  0  0  0
 11 15  1  0  0  0
M  END
$$$$
