REZ
  CCTOOLS-1004241127

 35 34  0  0  1  0  0  0  0  0999 V2000
    0.3110   -5.7500    7.4890 C   0  0  0  0  0
   -0.9950   -4.9570    7.5160 C   0  0  0  0  0
   -1.9260   -5.3260    6.3550 C   0  0  0  0  0
   -3.2120   -4.4890    6.3940 C   0  0  0  0  0
   -4.1870   -4.7460    5.2350 C   0  0  0  0  0
   -3.5950   -4.4640    3.9270 N   0  0  0  0  0
   -4.7020   -6.1740    5.2220 C   0  0  0  0  0
   -5.3730   -6.4830    6.3630 O   0  0  0  0  0
   -4.5510   -6.9750    4.3080 O   0  0  0  0  0
    1.2270   -5.4620    8.6670 C   0  0  0  0  0
    0.9380   -4.6800    9.5690 O   0  0  0  0  0
    2.3970   -6.2040    8.5980 N   0  0  0  0  0
    3.4340   -6.1420    9.6020 C   0  0  0  0  0
    4.4430   -5.0750    9.2130 C   0  0  0  0  0
    4.0670   -7.5070    9.6840 C   0  0  0  0  0
    4.2190   -8.2900    8.7570 O   0  0  0  0  0
    4.4830   -7.7640   10.9520 O   0  0  0  0  0
    0.0750   -6.8210    7.5230 H   0  0  0  0  0
    0.8510   -5.5610    6.5540 H   0  0  0  0  0
   -0.7850   -3.8800    7.5000 H   0  0  0  0  0
   -1.5090   -5.1680    8.4620 H   0  0  0  0  0
   -2.1690   -6.3920    6.4210 H   0  0  0  0  0
   -1.4100   -5.1680    5.4020 H   0  0  0  0  0
   -3.7310   -4.6790    7.3430 H   0  0  0  0  0
   -2.9380   -3.4260    6.4010 H   0  0  0  0  0
   -5.0560   -4.0850    5.3380 H   0  0  0  0  0
   -4.1520   -4.6260    3.1180 H   0  0  0  0  0
   -2.6100   -4.3200    3.8820 H   0  0  0  0  0
   -5.7290   -7.3960    6.4050 H   0  0  0  0  0
    2.5310   -6.8220    7.8020 H   0  0  0  0  0
    2.9600   -5.9120   10.5620 H   0  0  0  0  0
    4.1410   -4.5610    8.2950 H   0  0  0  0  0
    4.5440   -4.3240   10.0040 H   0  0  0  0  0
    5.4340   -5.5090    9.0370 H   0  0  0  0  0
    4.9120   -8.6430   11.0250 H   0  0  0  0  0
  1  2  1  0  0  0
  1 10  1  0  0  0
  1 18  1  0  0  0
  1 19  1  0  0  0
  2  3  1  0  0  0
  2 20  1  0  0  0
  2 21  1  0  0  0
  3  4  1  0  0  0
  3 22  1  0  0  0
  3 23  1  0  0  0
  4  5  1  0  0  0
  4 24  1  0  0  0
  4 25  1  0  0  0
  5  6  1  0  0  0
  5  7  1  0  0  0
  5 26  1  0  0  0
  6 27  1  0  0  0
  6 28  1  0  0  0
  7  8  1  0  0  0
  7  9  2  0  0  0
  8 29  1  0  0  0
 10 11  2  0  0  0
 10 12  1  0  0  0
 12 13  1  0  0  0
 12 30  1  0  0  0
 13 14  1  0  0  0
 13 15  1  0  0  0
 13 31  1  0  0  0
 14 32  1  0  0  0
 14 33  1  0  0  0
 14 34  1  0  0  0
 15 16  2  0  0  0
 15 17  1  0  0  0
 17 35  1  0  0  0
M  END
$$$$
