RF1
  CCTOOLS-0919241041

 44 46  0  0  0  0  0  0  0  0999 V2000
   -5.9970    1.5180    0.8960 C   0  0  0  0  0
   -6.0340    0.6090   -0.3330 C   0  0  0  0  0
   -6.8690   -0.6350   -0.0220 C   0  0  0  0  0
   -6.6620    1.3630   -1.5070 C   0  0  0  0  0
   -4.6820    0.2100   -0.6820 O   0  0  0  0  0
   -3.9860   -0.4690    0.2500 C   0  0  0  0  0
   -4.4940   -0.7210    1.3240 O   0  0  0  0  0
   -2.7250   -0.8680   -0.0100 N   0  0  0  0  0
   -1.9530   -1.6100    0.9960 C   0  0  0  0  0
   -0.6190   -0.8920    1.2220 C   0  0  0  0  0
   -2.0990   -0.5760   -1.3060 C   0  0  0  0  0
   -0.7640    0.1330   -1.0600 C   0  0  0  0  0
    0.0970   -0.7210   -0.1200 C   0  0  0  0  0
    1.4260   -0.0440    0.0980 C   0  0  0  0  0
    2.6040   -0.5310   -0.1980 N   0  0  0  0  0
    1.6210    1.1690    0.6250 O   0  0  0  0  0
    2.8070    1.4210    0.6630 N   0  0  0  0  0
    3.4940    0.4200    0.1720 C   0  0  0  0  0
    4.9640    0.3440    0.0420 C   0  0  0  0  0
    5.8300    1.3050    0.4230 C   0  0  0  0  0
    7.1570    1.0060    0.2010 C   0  0  0  0  0
    7.3830   -0.1880   -0.3570 C   0  0  0  0  0
    5.8560   -1.0170   -0.6270 S   0  0  0  0  0
   -5.5500    0.9810    1.7330 H   0  0  0  0  0
   -5.4030    2.4050    0.6750 H   0  0  0  0  0
   -7.0120    1.8180    1.1580 H   0  0  0  0  0
   -7.8840   -0.3360    0.2390 H   0  0  0  0  0
   -6.8950   -1.2830   -0.8980 H   0  0  0  0  0
   -6.4220   -1.1730    0.8140 H   0  0  0  0  0
   -6.0680    2.2500   -1.7290 H   0  0  0  0  0
   -6.6880    0.7150   -2.3830 H   0  0  0  0  0
   -7.6770    1.6630   -1.2450 H   0  0  0  0  0
   -2.5110   -1.6460    1.9320 H   0  0  0  0  0
   -1.7690   -2.6240    0.6410 H   0  0  0  0  0
   -0.8030    0.0880    1.6630 H   0  0  0  0  0
    0.0030   -1.4820    1.8940 H   0  0  0  0  0
   -1.9250   -1.5060   -1.8460 H   0  0  0  0  0
   -2.7550    0.0690   -1.8920 H   0  0  0  0  0
   -0.2440    0.2700   -2.0090 H   0  0  0  0  0
   -0.9470    1.1050   -0.6020 H   0  0  0  0  0
    0.2590   -1.7020   -0.5670 H   0  0  0  0  0
    5.5090    2.2360    0.8670 H   0  0  0  0  0
    7.9550    1.6860    0.4590 H   0  0  0  0  0
    8.3580   -0.5850   -0.6010 H   0  0  0  0  0
  1 24  1  0  0  0
  1 25  1  0  0  0
  1 26  1  0  0  0
  2  1  1  0  0  0
  2  3  1  0  0  0
  3 27  1  0  0  0
  3 28  1  0  0  0
  3 29  1  0  0  0
  4  2  1  0  0  0
  4 30  1  0  0  0
  4 31  1  0  0  0
  4 32  1  0  0  0
  5  2  1  0  0  0
  6  5  1  0  0  0
  6  8  1  0  0  0
  7  6  2  0  0  0
  8  9  1  0  0  0
  9 33  1  0  0  0
  9 34  1  0  0  0
 10  9  1  0  0  0
 10 35  1  0  0  0
 10 36  1  0  0  0
 11  8  1  0  0  0
 11 37  1  0  0  0
 11 38  1  0  0  0
 12 11  1  0  0  0
 12 13  1  0  0  0
 12 39  1  0  0  0
 12 40  1  0  0  0
 13 10  1  0  0  0
 13 41  1  0  0  0
 14 13  1  0  0  0
 14 16  1  0  0  0
 15 14  2  0  0  0
 15 18  1  0  0  0
 17 16  1  0  0  0
 18 17  2  0  0  0
 19 18  1  0  0  0
 19 23  1  0  0  0
 20 19  2  0  0  0
 20 42  1  0  0  0
 21 20  1  0  0  0
 21 22  2  0  0  0
 21 43  1  0  0  0
 22 23  1  0  0  0
 22 44  1  0  0  0
M  END
$$$$
