RF2
  CCTOOLS-0919241041

 28 30  0  0  0  0  0  0  0  0999 V2000
    2.9880    1.2250   -0.0020 C   0  0  0  0  0
    4.3250    0.8840   -0.0030 C   0  0  0  0  0
    4.7020   -0.4500   -0.0020 C   0  0  0  0  0
    6.0120   -0.7790   -0.0030 F   0  0  0  0  0
    3.7400   -1.4470    0.0010 C   0  0  0  0  0
    2.4010   -1.1170    0.0020 C   0  0  0  0  0
    2.0150    0.2240    0.0000 C   0  0  0  0  0
    0.5810    0.5840    0.0010 C   0  0  0  0  0
   -0.4750   -0.2870    0.0020 N   0  0  0  0  0
    0.0820    1.8010    0.0050 N   0  0  0  0  0
   -1.2030    1.7480    0.0030 N   0  0  0  0  0
   -1.6000    0.4940    0.0020 C   0  0  0  0  0
   -3.0000    0.0180   -0.0000 C   0  0  0  0  0
   -3.2740   -1.3510    0.0040 C   0  0  0  0  0
   -4.5820   -1.7890    0.0020 C   0  0  0  0  0
   -5.6210   -0.8750   -0.0040 C   0  0  0  0  0
   -5.3560    0.4830   -0.0080 C   0  0  0  0  0
   -4.0520    0.9340    0.0000 C   0  0  0  0  0
    2.6950    2.2640    0.0010 H   0  0  0  0  0
    5.0780    1.6570   -0.0040 H   0  0  0  0  0
    4.0390   -2.4850    0.0020 H   0  0  0  0  0
    1.6520   -1.8950    0.0030 H   0  0  0  0  0
   -2.4640   -2.0650    0.0080 H   0  0  0  0  0
   -4.7960   -2.8480    0.0040 H   0  0  0  0  0
   -6.6430   -1.2230   -0.0050 H   0  0  0  0  0
   -6.1720    1.1910   -0.0130 H   0  0  0  0  0
   -3.8470    1.9950    0.0020 H   0  0  0  0  0
   -0.4350   -1.2560    0.0040 H   0  0  0  0  0
  1  7  2  0  0  0
  1  2  1  0  0  0
  1 19  1  0  0  0
  2  3  2  0  0  0
  2 20  1  0  0  0
  3  5  1  0  0  0
  3  4  1  0  0  0
  5 21  1  0  0  0
  6  5  2  0  0  0
  6 22  1  0  0  0
  7  6  1  0  0  0
  8  7  1  0  0  0
  8  9  1  0  0  0
  9 28  1  0  0  0
 10  8  2  0  0  0
 11 10  1  0  0  0
 11 12  2  0  0  0
 12  9  1  0  0  0
 13 12  1  0  0  0
 13 18  1  0  0  0
 14 13  2  0  0  0
 14 23  1  0  0  0
 15 14  1  0  0  0
 15 16  2  0  0  0
 15 24  1  0  0  0
 16 17  1  0  0  0
 16 25  1  0  0  0
 17 18  2  0  0  0
 17 26  1  0  0  0
 18 27  1  0  0  0
M  END
$$$$
