RF3
  CCTOOLS-0919241041

 41 44  0  0  0  0  0  0  0  0999 V2000
    6.5660   -0.7550   -0.4960 C   0  0  0  0  0
    7.7560   -0.1800   -0.0840 C   0  0  0  0  0
    7.6830    1.1220    0.1980 C   0  0  0  0  0
    6.0380    1.6900   -0.0600 S   0  0  0  0  0
    5.5280    0.0810   -0.5540 C   0  0  0  0  0
    4.1310   -0.2970   -0.9730 C   0  0  0  0  0
    3.3460   -0.7370    0.2360 C   0  0  0  0  0
    3.8700   -0.7430    1.3300 O   0  0  0  0  0
    2.0620   -1.1240    0.1010 N   0  0  0  0  0
    1.2840   -1.5560    1.2710 C   0  0  0  0  0
   -0.0100   -0.7380    1.3320 C   0  0  0  0  0
    1.4110   -1.1160   -1.2160 C   0  0  0  0  0
    0.1160   -0.3040   -1.1220 C   0  0  0  0  0
   -0.7530   -0.8660   -0.0000 C   0  0  0  0  0
   -2.0430   -0.0900    0.0720 C   0  0  0  0  0
   -3.2500   -0.5750   -0.0720 N   0  0  0  0  0
   -2.1680    1.2210    0.3020 O   0  0  0  0  0
   -3.3400    1.5340    0.2970 N   0  0  0  0  0
   -4.0860    0.4810    0.0720 C   0  0  0  0  0
   -5.5610    0.4500   -0.0060 C   0  0  0  0  0
   -6.3710    1.5180    0.1410 C   0  0  0  0  0
   -7.7160    1.2410    0.0260 C   0  0  0  0  0
   -8.0130   -0.0400   -0.2130 C   0  0  0  0  0
   -6.5320   -0.9840   -0.3140 S   0  0  0  0  0
    6.4850   -1.8010   -0.7550 H   0  0  0  0  0
    8.6730   -0.7430    0.0040 H   0  0  0  0  0
    8.5070    1.7330    0.5330 H   0  0  0  0  0
    3.6420    0.5640   -1.4290 H   0  0  0  0  0
    4.1750   -1.1140   -1.6940 H   0  0  0  0  0
    1.0420   -2.6150    1.1780 H   0  0  0  0  0
    1.8640   -1.3890    2.1780 H   0  0  0  0  0
   -0.6400   -1.1130    2.1380 H   0  0  0  0  0
    0.2300    0.3100    1.5150 H   0  0  0  0  0
    2.0770   -0.6600   -1.9490 H   0  0  0  0  0
    1.1810   -2.1390   -1.5160 H   0  0  0  0  0
    0.3550    0.7380   -0.9110 H   0  0  0  0  0
   -0.4240   -0.3700   -2.0660 H   0  0  0  0  0
   -0.9710   -1.9150   -0.2010 H   0  0  0  0  0
   -5.9950    2.5120    0.3350 H   0  0  0  0  0
   -8.4750    2.0040    0.1230 H   0  0  0  0  0
   -9.0110   -0.4360   -0.3310 H   0  0  0  0  0
  1 25  1  0  0  0
  2  1  1  0  0  0
  2 26  1  0  0  0
  3  2  2  0  0  0
  3 27  1  0  0  0
  4  3  1  0  0  0
  4  5  1  0  0  0
  5  1  2  0  0  0
  5  6  1  0  0  0
  6 28  1  0  0  0
  6 29  1  0  0  0
  7  6  1  0  0  0
  7  9  1  0  0  0
  8  7  2  0  0  0
  9 10  1  0  0  0
 10 11  1  0  0  0
 10 30  1  0  0  0
 10 31  1  0  0  0
 11 32  1  0  0  0
 11 33  1  0  0  0
 12  9  1  0  0  0
 12 13  1  0  0  0
 12 34  1  0  0  0
 12 35  1  0  0  0
 13 14  1  0  0  0
 13 36  1  0  0  0
 13 37  1  0  0  0
 14 11  1  0  0  0
 14 15  1  0  0  0
 14 38  1  0  0  0
 15 17  1  0  0  0
 16 15  2  0  0  0
 16 19  1  0  0  0
 17 18  1  0  0  0
 19 18  2  0  0  0
 20 19  1  0  0  0
 20 21  2  0  0  0
 21 39  1  0  0  0
 22 21  1  0  0  0
 22 40  1  0  0  0
 23 22  2  0  0  0
 23 41  1  0  0  0
 24 20  1  0  0  0
 24 23  1  0  0  0
M  END
$$$$
