RHQ
  CCTOOLS-0919241042

 64 67  0  0  0  0  0  0  0  0999 V2000
    1.2880    1.7610   -0.0000 C   0  0  0  0  0
    1.3660    0.3800    0.4740 C   0  0  0  0  0
    2.6170   -0.2590    0.6090 C   0  0  0  0  0
    3.7520    0.4080    0.3000 C   0  0  0  0  0
    3.6840    1.7890   -0.1740 C   0  0  0  0  0
    2.4350    2.4310   -0.3120 C   0  0  0  0  0
    0.0910    2.3720   -0.1360 O   0  0  0  0  0
   -1.0720    1.7520    0.1550 C   0  0  0  0  0
   -1.0900    0.4220    0.6180 C   0  0  0  0  0
    0.1750   -0.2990    0.7920 C   0  0  0  0  0
   -2.2720    2.4300   -0.0030 C   0  0  0  0  0
   -3.4700    1.7960    0.2950 C   0  0  0  0  0
   -3.4800    0.4770    0.7540 C   0  0  0  0  0
   -2.3090   -0.2030    0.9140 C   0  0  0  0  0
   -4.6700    2.4800    0.1360 N   0  0  0  0  0
    0.1990   -1.6930    1.2730 C   0  0  0  0  0
    0.5970   -1.9780    2.5800 C   0  0  0  0  0
    0.6160   -3.2850    3.0260 C   0  0  0  0  0
    0.2420   -4.3190    2.1840 C   0  0  0  0  0
   -0.1550   -4.0580    0.8870 C   0  0  0  0  0
   -0.1880   -2.7460    0.4190 C   0  0  0  0  0
   -4.7890   -0.1970    1.0730 C   0  0  0  0  0
    5.0890   -0.2730    0.4440 C   0  0  0  0  0
   -4.6670    3.8640   -0.3450 C   0  0  0  0  0
   -6.1060    4.3770   -0.4300 C   0  0  0  0  0
    4.7990    2.4410   -0.4770 N   0  3  0  0  0
    6.0520    1.7040   -0.6590 C   0  0  0  0  0
    7.1160    2.6410   -1.2340 C   0  0  0  0  0
   -0.6170   -2.4610   -0.9650 C   0  0  0  0  0
   -0.6390   -1.3160   -1.3700 O   0  0  0  0  0
   -0.9850   -3.4710   -1.7780 O   0  0  0  0  0
   -1.3960   -3.1170   -3.1250 C   0  0  0  0  0
   -1.7740   -4.3850   -3.8920 C   0  0  0  0  0
    2.6680   -1.2790    0.9600 H   0  0  0  0  0
    2.3870    3.4510   -0.6630 H   0  0  0  0  0
   -2.2740    3.4500   -0.3570 H   0  0  0  0  0
   -2.3210   -1.2230    1.2690 H   0  0  0  0  0
   -5.5100    2.0400    0.3430 H   0  0  0  0  0
    0.8900   -1.1770    3.2420 H   0  0  0  0  0
    0.9250   -3.5020    4.0370 H   0  0  0  0  0
    0.2610   -5.3370    2.5450 H   0  0  0  0  0
   -0.4450   -4.8700    0.2370 H   0  0  0  0  0
   -5.1680   -0.6960    0.1810 H   0  0  0  0  0
   -4.6360   -0.9320    1.8630 H   0  0  0  0  0
   -5.5100    0.5500    1.4060 H   0  0  0  0  0
    4.9430   -1.2790    0.8360 H   0  0  0  0  0
    5.5750   -0.3290   -0.5300 H   0  0  0  0  0
    5.7150    0.2980    1.1300 H   0  0  0  0  0
   -4.0990    4.4870    0.3460 H   0  0  0  0  0
   -4.2080    3.9040   -1.3330 H   0  0  0  0  0
   -6.1030    5.4070   -0.7870 H   0  0  0  0  0
   -6.6740    3.7540   -1.1200 H   0  0  0  0  0
   -6.5650    4.3370    0.5580 H   0  0  0  0  0
    4.7860    3.4060   -0.5770 H   0  0  0  0  0
    6.3900    1.3180    0.3030 H   0  0  0  0  0
    5.8890    0.8740   -1.3470 H   0  0  0  0  0
    8.0480    2.0930   -1.3700 H   0  0  0  0  0
    6.7790    3.0270   -2.1960 H   0  0  0  0  0
    7.2800    3.4710   -0.5470 H   0  0  0  0  0
   -2.2560   -2.4490   -3.0790 H   0  0  0  0  0
   -0.5740   -2.6150   -3.6350 H   0  0  0  0  0
   -0.9130   -5.0520   -3.9390 H   0  0  0  0  0
   -2.5960   -4.8870   -3.3820 H   0  0  0  0  0
   -2.0820   -4.1190   -4.9040 H   0  0  0  0  0
  1  2  1  0  0  0
  1  6  2  0  0  0
  1  7  1  0  0  0
  2  3  1  0  0  0
  2 10  2  0  0  0
  3  4  2  0  0  0
  3 34  1  0  0  0
  4  5  1  0  0  0
  4 23  1  0  0  0
  5  6  1  0  0  0
  5 26  2  0  0  0
  6 35  1  0  0  0
  7  8  1  0  0  0
  8  9  2  0  0  0
  8 11  1  0  0  0
  9 10  1  0  0  0
  9 14  1  0  0  0
 10 16  1  0  0  0
 11 12  2  0  0  0
 11 36  1  0  0  0
 12 13  1  0  0  0
 12 15  1  0  0  0
 13 14  2  0  0  0
 13 22  1  0  0  0
 14 37  1  0  0  0
 15 24  1  0  0  0
 15 38  1  0  0  0
 16 17  2  0  0  0
 16 21  1  0  0  0
 17 18  1  0  0  0
 17 39  1  0  0  0
 18 19  2  0  0  0
 18 40  1  0  0  0
 19 20  1  0  0  0
 19 41  1  0  0  0
 20 21  2  0  0  0
 20 42  1  0  0  0
 21 29  1  0  0  0
 22 43  1  0  0  0
 22 44  1  0  0  0
 22 45  1  0  0  0
 23 46  1  0  0  0
 23 47  1  0  0  0
 23 48  1  0  0  0
 24 25  1  0  0  0
 24 49  1  0  0  0
 24 50  1  0  0  0
 25 51  1  0  0  0
 25 52  1  0  0  0
 25 53  1  0  0  0
 26 27  1  0  0  0
 26 54  1  0  0  0
 27 28  1  0  0  0
 27 55  1  0  0  0
 27 56  1  0  0  0
 28 57  1  0  0  0
 28 58  1  0  0  0
 28 59  1  0  0  0
 29 30  2  0  0  0
 29 31  1  0  0  0
 31 32  1  0  0  0
 32 33  1  0  0  0
 32 60  1  0  0  0
 32 61  1  0  0  0
 33 62  1  0  0  0
 33 63  1  0  0  0
 33 64  1  0  0  0
M  CHG  1  26   1
M  END
$$$$
