RI2
  CCTOOLS-0919241042

 30 30  0  0  1  0  0  0  0  0999 V2000
   -3.9650   -0.7870    0.0820 P   0  0  0  0  0
    1.6630    0.6320   -0.5660 C   0  0  0  0  0
    2.6460    0.0950    0.3210 O   0  0  0  0  0
    1.5880    2.1650   -0.4010 C   0  0  0  0  0
    2.0830    2.5640    0.8780 O   0  0  0  0  0
    0.0630    2.4350   -0.5120 C   0  0  0  0  0
   -0.3070    3.6080    0.2160 O   0  0  0  0  0
   -0.5110    1.1600    0.1550 C   0  0  0  0  0
    0.3730    0.0990   -0.2420 O   0  0  0  0  0
   -1.9290    0.8870   -0.3520 C   0  0  0  0  0
   -2.4830   -0.2220    0.3580 O   0  0  0  0  0
    3.4830   -1.2420   -0.0040 P   0  0  0  0  0
    2.4830   -2.5020   -0.0550 O   0  0  0  0  0
   -4.9460    0.3120    0.2230 O   0  0  0  0  0
    4.1590   -1.0950   -1.3120 O   0  0  0  0  0
   -4.0420   -1.3880   -1.4100 O   0  0  0  0  0
    4.5850   -1.4770    1.1460 O   0  0  0  0  0
   -4.3040   -1.9480    1.1450 O   0  0  0  0  0
    1.9180    0.3830   -1.5960 H   0  0  0  0  0
    2.1300    2.6680   -1.2020 H   0  0  0  0  0
    3.0110    2.3360    1.0300 H   0  0  0  0  0
   -0.2490    2.5080   -1.5540 H   0  0  0  0  0
    0.1160    4.4180   -0.1010 H   0  0  0  0  0
   -0.5100    1.2670    1.2390 H   0  0  0  0  0
   -2.5480    1.7690   -0.1900 H   0  0  0  0  0
   -1.8960    0.6570   -1.4170 H   0  0  0  0  0
    2.0050   -2.6590    0.7710 H   0  0  0  0  0
   -3.4240   -2.1140   -1.5740 H   0  0  0  0  0
    5.1280   -2.2670    1.0150 H   0  0  0  0  0
   -5.1830   -2.3350    1.0380 H   0  0  0  0  0
  1 18  1  0  0  0
  1 16  1  0  0  0
  2  9  1  0  0  0
  2 19  1  0  0  0
  3  2  1  0  0  0
  3 12  1  0  0  0
  4  2  1  0  0  0
  4  6  1  0  0  0
  4 20  1  0  0  0
  5  4  1  0  0  0
  5 21  1  0  0  0
  6  8  1  0  0  0
  6 22  1  0  0  0
  7  6  1  0  0  0
  7 23  1  0  0  0
  8  9  1  0  0  0
  8 10  1  0  0  0
  8 24  1  0  0  0
 10 11  1  0  0  0
 10 25  1  0  0  0
 10 26  1  0  0  0
 11  1  1  0  0  0
 12 13  1  0  0  0
 12 17  1  0  0  0
 13 27  1  0  0  0
 14  1  2  0  0  0
 15 12  2  0  0  0
 16 28  1  0  0  0
 17 29  1  0  0  0
 18 30  1  0  0  0
M  END
$$$$
