RIS
  CCTOOLS-0919241042

 28 28  0  0  0  0  0  0  0  0999 V2000
   -1.7820   -2.8720   -0.6400 O   0  0  0  0  0
   -1.2830   -2.4010    0.8240 P   0  0  0  0  0
   -2.0610   -1.2730    1.4330 O   0  0  0  0  0
   -1.2850   -3.7720    1.6790 O   0  0  0  0  0
    0.5120   -2.0440    0.5530 C   0  0  0  0  0
    0.9080   -1.6440    1.8650 O   0  0  0  0  0
    1.6820   -3.3820    0.1380 P   0  0  0  0  0
    1.1350   -3.9260   -1.2830 O   0  0  0  0  0
    1.2860   -4.5700    1.1600 O   0  0  0  0  0
    3.1320   -3.0010    0.1630 O   0  0  0  0  0
    0.5970   -0.8280   -0.4050 C   0  0  0  0  0
    1.9500   -0.1830   -0.5670 C   0  0  0  0  0
    2.3340    0.8480    0.2660 C   0  0  0  0  0
    3.5880    1.4240    0.0920 C   0  0  0  0  0
    4.3950    0.9280   -0.9190 C   0  0  0  0  0
    4.0380   -0.0810   -1.7450 N   0  0  0  0  0
    2.8130   -0.6150   -1.5460 C   0  0  0  0  0
   -2.7310   -3.0860   -0.7720 H   0  0  0  0  0
    1.8700   -1.5010    1.8600 H   0  0  0  0  0
    1.6290   -4.6410   -1.7390 H   0  0  0  0  0
    1.8060   -5.4010    1.1460 H   0  0  0  0  0
    0.2350   -1.1390   -1.3930 H   0  0  0  0  0
   -0.1000   -0.0480   -0.0700 H   0  0  0  0  0
    1.6790    1.2160    1.0510 H   0  0  0  0  0
    3.9230    2.2360    0.7280 H   0  0  0  0  0
    5.3810    1.3430   -1.0960 H   0  0  0  0  0
    2.5530   -1.4220   -2.2250 H   0  0  0  0  0
   -2.1420   -4.1480    1.9710 H   0  0  0  0  0
  1  2  1  0  0  0
  1 18  1  0  0  0
  2  3  2  0  0  0
  2  4  1  0  0  0
  2  5  1  0  0  0
  5  6  1  0  0  0
  5  7  1  0  0  0
  5 11  1  0  0  0
  6 19  1  0  0  0
  7  8  1  0  0  0
  7  9  1  0  0  0
  7 10  2  0  0  0
  8 20  1  0  0  0
  9 21  1  0  0  0
 11 12  1  0  0  0
 11 22  1  0  0  0
 11 23  1  0  0  0
 12 13  2  0  0  0
 12 17  1  0  0  0
 13 14  1  0  0  0
 13 24  1  0  0  0
 14 15  2  0  0  0
 14 25  1  0  0  0
 15 16  1  0  0  0
 15 26  1  0  0  0
 16 17  2  0  0  0
 17 27  1  0  0  0
 28  4  1  0  0  0
M  END
$$$$
