RJ1
  CCTOOLS-0919241042

 27 27  0  0  0  0  0  0  0  0999 V2000
    2.2080    0.1080    0.0650 C   0  0  0  0  0
    2.4190    1.4660   -0.0900 C   0  0  0  0  0
    1.3440    2.3320   -0.1680 C   0  0  0  0  0
    0.0540    1.8420   -0.0900 C   0  0  0  0  0
   -0.1620    0.4790    0.0660 C   0  0  0  0  0
    0.9210   -0.3880    0.1440 C   0  0  0  0  0
   -1.2960    2.9300   -0.1870 CL  0  0  0  0  0
    3.3820   -0.8320    0.1430 C   0  0  0  0  0
    3.0440   -1.9370    0.9320 F   0  0  0  0  0
    3.7200   -1.2640   -1.1440 F   0  0  0  0  0
    4.4740   -0.1690    0.7140 F   0  0  0  0  0
   -1.4660   -0.0210    0.1460 N   0  0  0  0  0
   -1.7660   -1.2510   -0.3930 C   0  0  0  0  0
   -3.0710   -1.6980   -0.4070 N   0  0  0  0  0
   -4.0580   -0.9650    0.2170 C   0  0  0  0  0
   -5.3340   -1.4680    0.3090 N   0  0  0  0  0
   -0.8180   -1.9930   -0.8900 N   0  0  0  0  0
   -3.7820    0.2050    0.7200 N   0  0  0  0  0
    3.4260    1.8510   -0.1510 H   0  0  0  0  0
    1.5130    3.3920   -0.2890 H   0  0  0  0  0
    0.7570   -1.4480    0.2650 H   0  0  0  0  0
   -2.1590    0.5000    0.5810 H   0  0  0  0  0
   -3.2950   -2.5290   -0.8560 H   0  0  0  0  0
   -5.5250   -2.3680    0.0010 H   0  0  0  0  0
   -6.0450   -0.9230    0.6830 H   0  0  0  0  0
   -1.0380   -2.8270   -1.3350 H   0  0  0  0  0
   -4.4760    0.7200    1.1590 H   0  0  0  0  0
  1  6  2  0  0  0
  1  2  1  0  0  0
  2  3  2  0  0  0
  2 19  1  0  0  0
  3  4  1  0  0  0
  3 20  1  0  0  0
  4  7  1  0  0  0
  5  4  2  0  0  0
  5 12  1  0  0  0
  6  5  1  0  0  0
  6 21  1  0  0  0
  8  1  1  0  0  0
  8 10  1  0  0  0
  9  8  1  0  0  0
 11  8  1  0  0  0
 12 13  1  0  0  0
 12 22  1  0  0  0
 13 17  2  0  0  0
 13 14  1  0  0  0
 14 15  1  0  0  0
 14 23  1  0  0  0
 15 16  1  0  0  0
 16 24  1  0  0  0
 16 25  1  0  0  0
 17 26  1  0  0  0
 18 15  2  0  0  0
 18 27  1  0  0  0
M  END
$$$$
