RJ6
  CCTOOLS-0919241042

 32 32  0  0  0  0  0  0  0  0999 V2000
    2.4750    0.9680   -0.2320 C   0  0  0  0  0
    2.5160   -0.3980    0.0070 C   0  0  0  0  0
    1.3800   -1.0590    0.4510 C   0  0  0  0  0
    0.2040   -0.3540    0.6570 C   0  0  0  0  0
    0.1630    1.0130    0.4180 C   0  0  0  0  0
    1.3010    1.6740   -0.0220 C   0  0  0  0  0
    3.5890    1.6140   -0.6680 O   0  0  0  0  0
    4.7650    0.8250   -0.8570 C   0  0  0  0  0
    1.4200   -2.3970    0.6830 O   0  0  0  0  0
    2.6650   -3.0590    0.4500 C   0  0  0  0  0
   -1.0240    1.7240    0.6250 N   0  0  0  0  0
   -2.2360    1.1390    0.3380 C   0  0  0  0  0
   -2.2770   -0.1000   -0.2690 N   0  0  0  0  0
   -3.4920   -0.6890   -0.5510 C   0  0  0  0  0
   -3.5340   -1.9560   -1.0840 N   0  0  0  0  0
   -3.3440    1.7540    0.6380 N   0  0  0  0  0
   -4.5990   -0.0460   -0.3120 N   0  0  0  0  0
    3.4320   -0.9470   -0.1540 H   0  0  0  0  0
   -0.6810   -0.8690    1.0020 H   0  0  0  0  0
    1.2700    2.7380   -0.2070 H   0  0  0  0  0
    5.5780    1.4630   -1.2050 H   0  0  0  0  0
    5.0470    0.3600    0.0870 H   0  0  0  0  0
    4.5670    0.0510   -1.5990 H   0  0  0  0  0
    2.9520   -2.9350   -0.5940 H   0  0  0  0  0
    3.4320   -2.6270    1.0920 H   0  0  0  0  0
    2.5590   -4.1210    0.6740 H   0  0  0  0  0
   -0.9920    2.6290    0.9720 H   0  0  0  0  0
   -1.4520   -0.5550   -0.4980 H   0  0  0  0  0
   -2.7150   -2.4630   -1.1940 H   0  0  0  0  0
   -4.3830   -2.3420   -1.3500 H   0  0  0  0  0
   -3.3160    2.6550    0.9980 H   0  0  0  0  0
   -5.4530   -0.4600   -0.5110 H   0  0  0  0  0
  1  2  1  0  0  0
  1  7  1  0  0  0
  2 18  1  0  0  0
  3  2  2  0  0  0
  3  9  1  0  0  0
  4  3  1  0  0  0
  4 19  1  0  0  0
  5  4  2  0  0  0
  5  6  1  0  0  0
  6  1  2  0  0  0
  6 20  1  0  0  0
  8  7  1  0  0  0
  8 21  1  0  0  0
  8 22  1  0  0  0
  8 23  1  0  0  0
 10  9  1  0  0  0
 10 24  1  0  0  0
 10 25  1  0  0  0
 10 26  1  0  0  0
 11  5  1  0  0  0
 11 27  1  0  0  0
 12 11  1  0  0  0
 12 16  2  0  0  0
 13 12  1  0  0  0
 13 28  1  0  0  0
 14 13  1  0  0  0
 14 15  1  0  0  0
 15 29  1  0  0  0
 15 30  1  0  0  0
 16 31  1  0  0  0
 17 14  2  0  0  0
 17 32  1  0  0  0
M  END
$$$$
