RMB
  CCTOOLS-0919241042

 40 42  0  0  1  0  0  0  0  0999 V2000
   -1.0900    1.8020    2.8310 N   0  0  0  0  0
   -0.1400    0.1400    1.7840 N   0  0  0  0  0
   -0.6600    1.3920    1.6730 C   0  0  0  0  0
   -0.2630   -0.2400    3.1050 C   0  0  0  0  0
   -0.8750    0.8390    3.7640 C   0  0  0  0  0
   -1.1400    0.7480    5.1330 C   0  0  0  0  0
   -0.7930   -0.3800    5.8200 C   0  0  0  0  0
   -0.1890   -1.4460    5.1700 C   0  0  0  0  0
    0.0770   -1.3810    3.8180 C   0  0  0  0  0
   -1.0760   -0.4710    7.2970 C   0  0  0  0  0
   -0.9430   -0.1630   -4.7990 P   0  0  0  0  0
   -0.9320   -1.6420   -4.8480 O   0  0  0  0  0
   -2.3640    0.3800   -5.3270 O   0  0  0  0  0
    0.2330    0.4130   -5.7330 O   0  0  0  0  0
   -0.7120    0.3240   -3.2820 O   0  0  0  0  0
    0.5570   -0.1860   -2.8720 C   0  0  0  0  0
    0.8390    0.2430   -1.4310 C   0  0  0  0  0
   -0.1570   -0.2910   -0.5470 O   0  0  0  0  0
    2.1800   -0.3570   -0.9410 C   0  0  0  0  0
    3.2810    0.4810   -1.2950 O   0  0  0  0  0
    1.9550   -0.3700    0.5960 C   0  0  0  0  0
    2.2760    0.8990    1.1670 O   0  0  0  0  0
    0.4420   -0.6560    0.7010 C   0  0  0  0  0
   -0.7080    1.9630    0.7580 H   0  0  0  0  0
   -1.6150    1.5700    5.6480 H   0  0  0  0  0
    0.0750   -2.3330    5.7260 H   0  0  0  0  0
    0.5480   -2.2130    3.3170 H   0  0  0  0  0
   -0.2200   -0.0920    7.8550 H   0  0  0  0  0
   -1.9580    0.1230    7.5350 H   0  0  0  0  0
   -1.2550   -1.5110    7.5690 H   0  0  0  0  0
   -2.4620    0.0660   -6.2360 H   0  0  0  0  0
    0.1900    1.3770   -5.6730 H   0  0  0  0  0
    1.3350    0.2050   -3.5280 H   0  0  0  0  0
    0.5460   -1.2740   -2.9310 H   0  0  0  0  0
    0.8640    1.3310   -1.3600 H   0  0  0  0  0
    2.3210   -1.3680   -1.3250 H   0  0  0  0  0
    4.0800    0.0500   -0.9620 H   0  0  0  0  0
    2.5360   -1.1630    1.0670 H   0  0  0  0  0
    3.2130    1.0570    0.9880 H   0  0  0  0  0
    0.2780   -1.7170    0.8940 H   0  0  0  0  0
  1  3  2  0  0  0
  1  5  1  0  0  0
  2  3  1  0  0  0
  2  4  1  0  0  0
  2 23  1  0  0  0
  3 24  1  0  0  0
  4  5  2  0  0  0
  4  9  1  0  0  0
  5  6  1  0  0  0
  6  7  2  0  0  0
  6 25  1  0  0  0
  7  8  1  0  0  0
  7 10  1  0  0  0
  8  9  2  0  0  0
  8 26  1  0  0  0
  9 27  1  0  0  0
 10 28  1  0  0  0
 10 29  1  0  0  0
 10 30  1  0  0  0
 11 12  2  0  0  0
 11 13  1  0  0  0
 11 14  1  0  0  0
 11 15  1  0  0  0
 13 31  1  0  0  0
 14 32  1  0  0  0
 15 16  1  0  0  0
 16 17  1  0  0  0
 16 33  1  0  0  0
 16 34  1  0  0  0
 17 18  1  0  0  0
 17 19  1  0  0  0
 17 35  1  0  0  0
 18 23  1  0  0  0
 19 20  1  0  0  0
 19 21  1  0  0  0
 19 36  1  0  0  0
 20 37  1  0  0  0
 21 22  1  0  0  0
 21 23  1  0  0  0
 21 38  1  0  0  0
 22 39  1  0  0  0
 23 40  1  0  0  0
M  END
$$$$
