RMD
  CCTOOLS-1004241128

 47 56  0  0  0  0  0  0  0  0999 V2000
   26.8090  -15.9880  -22.3300 C   0  0  0  0  0
   28.3110  -15.8560  -22.5550 C   0  0  0  0  0
   28.9040  -16.4790  -23.4110 O   0  0  0  0  0
   26.7060  -15.1680  -21.0110 C   0  0  0  0  0
   28.0630  -14.4890  -20.9070 C   0  0  0  0  0
   28.3840  -13.5850  -20.1790 O   0  0  0  0  0
   28.9250  -14.9950  -21.7840 N   0  0  0  0  0
   30.3640  -14.5890  -21.9120 C   0  0  0  0  0
   30.7130  -14.6930  -23.4130 C   0  0  0  0  0
   31.7780  -15.7760  -23.5980 C   0  0  0  0  0
   31.6670  -17.0620  -23.2400 C   0  0  0  0  0
   32.8450  -17.7130  -23.4500 C   0  0  0  0  0
   33.7070  -16.7210  -24.0690 C   0  0  0  0  0
   33.0000  -15.5780  -24.1280 C   0  0  0  0  0
   32.0140  -17.1030  -25.4070 RH  0  0  0  0  0
   31.6970  -18.7290  -26.5490 C   0  0  0  0  0
   33.2040  -18.9170  -26.8170 C   0  0  0  0  0
   34.0690  -17.7130  -27.0980 C   0  0  0  0  0
   30.8940  -17.6600  -26.8530 C   0  0  0  0  0
   30.7090  -16.7520  -28.0760 C   0  0  0  0  0
   31.4350  -15.4330  -27.7630 C   0  0  0  0  0
   32.4900  -15.6210  -26.6070 C   0  0  0  0  0
   33.6760  -16.3280  -26.4720 C   0  0  0  0  0
   26.2260  -15.5370  -23.1460 H   0  0  0  0  0
   26.5000  -17.0350  -22.1940 H   0  0  0  0  0
   25.8980  -14.4240  -21.0730 H   0  0  0  0  0
   26.5300  -15.8290  -20.1500 H   0  0  0  0  0
   30.5010  -13.5560  -21.5600 H   0  0  0  0  0
   31.0040  -15.2640  -21.3250 H   0  0  0  0  0
   29.8120  -14.9600  -23.9850 H   0  0  0  0  0
   31.1010  -13.7280  -23.7700 H   0  0  0  0  0
   30.7200  -17.5650  -22.9950 H   0  0  0  0  0
   33.0470  -18.7930  -23.3970 H   0  0  0  0  0
   34.6720  -16.9430  -24.5480 H   0  0  0  0  0
   33.2810  -14.7030  -24.7330 H   0  0  0  0  0
   31.2610  -19.5110  -25.9100 H   0  0  0  0  0
   33.6260  -19.4130  -25.9310 H   0  0  0  0  0
   33.2920  -19.5840  -27.6880 H   0  0  0  0  0
   35.0810  -17.9530  -26.7390 H   0  0  0  0  0
   34.0890  -17.5790  -28.1900 H   0  0  0  0  0
   29.9060  -17.7940  -26.3880 H   0  0  0  0  0
   31.1480  -17.2230  -28.9680 H   0  0  0  0  0
   29.6390  -16.5640  -28.2500 H   0  0  0  0  0
   31.9540  -15.0860  -28.6690 H   0  0  0  0  0
   30.6940  -14.6810  -27.4540 H   0  0  0  0  0
   32.4810  -14.7250  -25.9690 H   0  0  0  0  0
   34.3970  -15.9580  -25.7290 H   0  0  0  0  0
  1  2  1  0  0  0
  1  4  1  0  0  0
  1 24  1  0  0  0
  1 25  1  0  0  0
  2  3  2  0  0  0
  2  7  1  0  0  0
  4  5  1  0  0  0
  4 26  1  0  0  0
  4 27  1  0  0  0
  5  6  2  0  0  0
  5  7  1  0  0  0
  7  8  1  0  0  0
  8  9  1  0  0  0
  8 28  1  0  0  0
  8 29  1  0  0  0
  9 10  1  0  0  0
  9 30  1  0  0  0
  9 31  1  0  0  0
 10 11  1  0  0  0
 10 14  1  0  0  0
 10 15  1  0  0  0
 11 12  1  0  0  0
 11 15  1  0  0  0
 11 32  1  0  0  0
 12 13  1  0  0  0
 12 15  1  0  0  0
 12 33  1  0  0  0
 13 14  1  0  0  0
 13 15  1  0  0  0
 13 34  1  0  0  0
 14 15  1  0  0  0
 14 35  1  0  0  0
 15 16  1  0  0  0
 15 19  1  0  0  0
 15 22  1  0  0  0
 15 23  1  0  0  0
 16 17  1  0  0  0
 16 19  1  0  0  0
 16 36  1  0  0  0
 17 18  1  0  0  0
 17 37  1  0  0  0
 17 38  1  0  0  0
 18 23  1  0  0  0
 18 39  1  0  0  0
 18 40  1  0  0  0
 19 20  1  0  0  0
 19 41  1  0  0  0
 20 21  1  0  0  0
 20 42  1  0  0  0
 20 43  1  0  0  0
 21 22  1  0  0  0
 21 44  1  0  0  0
 21 45  1  0  0  0
 22 23  1  0  0  0
 22 46  1  0  0  0
 23 47  1  0  0  0
M  END
$$$$
