RMN
  CCTOOLS-0919241042

 19 19  0  0  1  0  0  0  0  0999 V2000
    0.1360    0.3700    0.4040 C   0  0  0  0  0
   -0.9390    0.8120    1.1510 C   0  0  0  0  0
   -1.0730    0.4190    2.4700 C   0  0  0  0  0
   -0.1310   -0.4150    3.0410 C   0  0  0  0  0
    0.9440   -0.8570    2.2940 C   0  0  0  0  0
    1.0750   -0.4680    0.9740 C   0  0  0  0  0
    0.2820    0.7990   -1.0320 C   0  0  0  0  0
   -0.4200   -0.1900   -1.9250 C   0  0  0  0  0
    1.6680    0.8490   -1.3760 O   0  0  0  0  0
    0.2010   -0.7910   -2.7690 O   0  0  0  0  0
   -1.7380   -0.4050   -1.7830 O   0  0  0  0  0
   -1.6760    1.4640    0.7050 H   0  0  0  0  0
   -1.9140    0.7650    3.0530 H   0  0  0  0  0
   -0.2350   -0.7210    4.0720 H   0  0  0  0  0
    1.6800   -1.5090    2.7410 H   0  0  0  0  0
    1.9160   -0.8130    0.3910 H   0  0  0  0  0
   -0.1610    1.7860   -1.1640 H   0  0  0  0  0
    2.0210   -0.0410   -1.2460 H   0  0  0  0  0
   -2.1890   -1.0400   -2.3560 H   0  0  0  0  0
  1  2  2  0  0  0
  1  6  1  0  0  0
  1  7  1  0  0  0
  2  3  1  0  0  0
  2 12  1  0  0  0
  3  4  2  0  0  0
  3 13  1  0  0  0
  4  5  1  0  0  0
  4 14  1  0  0  0
  5  6  2  0  0  0
  5 15  1  0  0  0
  6 16  1  0  0  0
  7  8  1  0  0  0
  7  9  1  0  0  0
  7 17  1  0  0  0
  8 10  2  0  0  0
  8 11  1  0  0  0
  9 18  1  0  0  0
 11 19  1  0  0  0
M  END
$$$$
