RNR
  CCTOOLS-0919241043

 67 71  0  0  1  0  0  0  0  0999 V2000
    0.0390    0.0800   -1.0420 N   0  0  0  0  0
   -1.1360    0.5500   -0.6350 C   0  0  0  0  0
   -2.3380   -0.0620   -1.0410 C   0  0  0  0  0
   -3.5310    0.4390   -0.6080 C   0  0  0  0  0
   -3.5970    1.5560    0.2350 C   0  0  0  0  0
   -2.4750    2.1890    0.6610 C   0  0  0  0  0
   -1.2110    1.7180    0.2490 C   0  0  0  0  0
   -0.0340    2.3440    0.6660 C   0  0  0  0  0
    1.1800    1.8210    0.2150 C   0  0  0  0  0
    2.4100    2.3980    0.5940 C   0  0  0  0  0
    3.5700    1.8630    0.1370 C   0  0  0  0  0
    3.5770    0.7440   -0.7060 C   0  0  0  0  0
    2.4190    0.1420   -1.1070 C   0  0  0  0  0
    1.1810    0.6490   -0.6660 C   0  0  0  0  0
    4.7980    0.2320   -1.1480 N   0  0  0  0  0
    5.8740    0.2630   -0.3370 C   0  0  0  0  0
    5.7600    0.6460    0.8080 O   0  0  0  0  0
    7.2200   -0.1790   -0.8530 C   0  0  0  0  0
    8.2620   -0.0460    0.2600 C   0  0  0  0  0
    9.5730   -0.4770   -0.2440 N   0  0  0  0  0
   10.6420   -0.1430    0.7150 C   0  0  0  0  0
   11.3730   -1.4570    1.0610 C   0  0  0  0  0
   12.7520   -1.2450    1.1610 F   0  0  0  0  0
   11.0440   -2.3690   -0.1500 C   0  0  0  0  0
    9.5950   -1.9350   -0.4850 C   0  0  0  0  0
   -4.7160   -0.1750   -1.0170 N   0  0  0  0  0
   -5.7690   -0.2360   -0.1770 C   0  0  0  0  0
   -5.6560    0.1570    0.9650 O   0  0  0  0  0
   -7.0850   -0.7910   -0.6570 C   0  0  0  0  0
   -8.1040   -0.7470    0.4840 C   0  0  0  0  0
   -9.3870   -1.2880    0.0160 N   0  0  0  0  0
  -10.3190   -1.4830    1.1410 C   0  0  0  0  0
  -11.5950   -0.6760    0.8220 C   0  0  0  0  0
  -12.7380   -1.3830    1.2110 F   0  0  0  0  0
  -11.5400   -0.5290   -0.7210 C   0  0  0  0  0
  -10.0170   -0.3810   -0.9670 C   0  0  0  0  0
   -2.3150   -0.9240   -1.6920 H   0  0  0  0  0
   -4.5620    1.9210    0.5540 H   0  0  0  0  0
   -2.5490    3.0480    1.3110 H   0  0  0  0  0
   -0.0620    3.2060    1.3160 H   0  0  0  0  0
    2.4280    3.2610    1.2430 H   0  0  0  0  0
    4.5090    2.3090    0.4300 H   0  0  0  0  0
    2.4520   -0.7190   -1.7580 H   0  0  0  0  0
    4.8720   -0.1460   -2.0380 H   0  0  0  0  0
    7.1620   -1.2190   -1.1750 H   0  0  0  0  0
    7.5080    0.4470   -1.6970 H   0  0  0  0  0
    8.3190    0.9930    0.5810 H   0  0  0  0  0
    7.9730   -0.6720    1.1040 H   0  0  0  0  0
   11.3400    0.5610    0.2620 H   0  0  0  0  0
   10.2100    0.2900    1.6170 H   0  0  0  0  0
   10.9820   -1.8830    1.9850 H   0  0  0  0  0
   11.7150   -2.1660   -0.9850 H   0  0  0  0  0
   11.0810   -3.4210    0.1320 H   0  0  0  0  0
    8.8870   -2.4390    0.1730 H   0  0  0  0  0
    9.3660   -2.1510   -1.5280 H   0  0  0  0  0
   -4.7820   -0.5590   -1.9060 H   0  0  0  0  0
   -7.4490   -0.1930   -1.4930 H   0  0  0  0  0
   -6.9480   -1.8220   -0.9820 H   0  0  0  0  0
   -7.7400   -1.3450    1.3190 H   0  0  0  0  0
   -8.2410    0.2850    0.8080 H   0  0  0  0  0
  -10.5650   -2.5400    1.2400 H   0  0  0  0  0
   -9.8700   -1.1170    2.0630 H   0  0  0  0  0
  -11.5650    0.3010    1.3060 H   0  0  0  0  0
  -11.9300   -1.4200   -1.2120 H   0  0  0  0  0
  -12.0760    0.3620   -1.0480 H   0  0  0  0  0
   -9.7030    0.6480   -0.7900 H   0  0  0  0  0
   -9.7660   -0.6870   -1.9820 H   0  0  0  0  0
  1  2  2  0  0  0
  1 14  1  0  0  0
  2  3  1  0  0  0
  2  7  1  0  0  0
  3  4  2  0  0  0
  3 37  1  0  0  0
  4  5  1  0  0  0
  4 26  1  0  0  0
  5  6  2  0  0  0
  5 38  1  0  0  0
  6  7  1  0  0  0
  6 39  1  0  0  0
  7  8  2  0  0  0
  8  9  1  0  0  0
  8 40  1  0  0  0
  9 10  1  0  0  0
  9 14  2  0  0  0
 10 11  2  0  0  0
 10 41  1  0  0  0
 11 12  1  0  0  0
 11 42  1  0  0  0
 12 13  2  0  0  0
 12 15  1  0  0  0
 13 14  1  0  0  0
 13 43  1  0  0  0
 15 16  1  0  0  0
 15 44  1  0  0  0
 16 17  2  0  0  0
 16 18  1  0  0  0
 18 19  1  0  0  0
 18 45  1  0  0  0
 18 46  1  0  0  0
 19 20  1  0  0  0
 19 47  1  0  0  0
 19 48  1  0  0  0
 20 21  1  0  0  0
 20 25  1  0  0  0
 21 22  1  0  0  0
 21 49  1  0  0  0
 21 50  1  0  0  0
 22 23  1  0  0  0
 22 24  1  0  0  0
 22 51  1  0  0  0
 24 25  1  0  0  0
 24 52  1  0  0  0
 24 53  1  0  0  0
 25 54  1  0  0  0
 25 55  1  0  0  0
 26 27  1  0  0  0
 26 56  1  0  0  0
 27 28  2  0  0  0
 27 29  1  0  0  0
 29 30  1  0  0  0
 29 57  1  0  0  0
 29 58  1  0  0  0
 30 31  1  0  0  0
 30 59  1  0  0  0
 30 60  1  0  0  0
 31 32  1  0  0  0
 31 36  1  0  0  0
 32 33  1  0  0  0
 32 61  1  0  0  0
 32 62  1  0  0  0
 33 34  1  0  0  0
 33 35  1  0  0  0
 33 63  1  0  0  0
 35 36  1  0  0  0
 35 64  1  0  0  0
 35 65  1  0  0  0
 36 66  1  0  0  0
 36 67  1  0  0  0
M  END
$$$$
