RPO
  CCTOOLS-0919241043

100104  0  0  1  0  0  0  0  0999 V2000
    2.2600   -0.9950    1.7650 C   0  0  0  0  0
    1.9390   -1.4600    0.4530 O   0  0  0  0  0
    1.9420    0.4990    1.8700 C   0  0  0  0  0
    0.5250    0.7220    1.5530 N   0  0  0  0  0
    2.8160    1.2700    0.8770 C   0  0  0  0  0
    2.5780    2.6720    1.0200 O   0  0  0  0  0
    4.2890    0.9690    1.1690 C   0  0  0  0  0
    5.1120    1.6260    0.2030 O   0  0  0  0  0
    4.5170   -0.5430    1.0910 C   0  0  0  0  0
    3.6520   -1.2030    2.0180 O   0  0  0  0  0
    5.9730   -0.8580    1.4410 C   0  0  0  0  0
    6.2790   -0.3270    2.7310 O   0  0  0  0  0
    7.5670    4.8340   -1.6370 C   0  0  0  0  0
    6.8550    4.2080   -0.6310 C   0  0  0  0  0
    8.5060    4.1260   -2.3630 C   0  0  0  0  0
    7.0830    2.8730   -0.3510 C   0  0  0  0  0
    8.7330    2.7910   -2.0830 C   0  0  0  0  0
    6.3070    2.1910    0.7460 C   0  0  0  0  0
    8.0220    2.1650   -1.0770 C   0  0  0  0  0
    0.9940   -5.2610   -1.1510 C   0  0  0  0  0
    2.3250   -5.0950   -0.4150 C   0  0  0  0  0
    2.6920   -3.6100   -0.3530 C   0  0  0  0  0
    1.5970   -2.8460    0.3940 C   0  0  0  0  0
    0.2660   -3.0120   -0.3410 C   0  0  0  0  0
   -0.1010   -4.4960   -0.4030 C   0  0  0  0  0
    0.6420   -6.6860   -1.2110 N   0  0  0  0  0
    3.9700   -3.4510    0.3530 N   0  0  0  0  0
   -0.7560   -2.2980    0.3570 O   0  0  0  0  0
   -1.3440   -4.6510   -1.0900 O   0  0  0  0  0
   -2.4830   -0.0060   -1.7370 C   0  0  0  0  0
   -1.3080   -0.7360   -1.3220 O   0  0  0  0  0
   -1.8000   -1.8050   -0.4860 C   0  0  0  0  0
   -2.9170   -1.1600    0.3640 C   0  0  0  0  0
   -3.9960   -2.0770    0.5520 O   0  0  0  0  0
   -3.3770    0.0510   -0.4780 C   0  0  0  0  0
   -4.7540   -0.0810   -0.8360 O   0  0  0  0  0
   -2.1020    1.4070   -2.1840 C   0  0  0  0  0
   -1.3120    1.3340   -3.3720 O   0  0  0  0  0
   -6.3830    2.6490    0.9300 C   0  0  0  0  0
   -5.5380    1.9440    0.0180 O   0  0  0  0  0
   -5.6560    0.5220    0.0940 C   0  0  0  0  0
   -7.0910    0.1120   -0.2480 C   0  0  0  0  0
   -7.4000    0.5110   -1.6280 N   0  0  0  0  0
   -8.0570    0.8100    0.7140 C   0  0  0  0  0
   -7.7990    0.3730    2.0500 O   0  0  0  0  0
   -7.8470    2.3240    0.6220 C   0  0  0  0  0
   -8.1680    2.7710   -0.6980 O   0  0  0  0  0
   -6.1520    4.1540    0.7810 C   0  0  0  0  0
   -4.7470    4.4650    1.0760 N   0  0  0  0  0
    1.6720   -1.5450    2.5000 H   0  0  0  0  0
    2.1470    0.8450    2.8840 H   0  0  0  0  0
   -0.0720    0.2180    2.1920 H   0  0  0  0  0
    0.3050    1.7060    1.5530 H   0  0  0  0  0
    2.5730    0.9610   -0.1390 H   0  0  0  0  0
    1.6620    2.9340    0.8560 H   0  0  0  0  0
    4.5430    1.3250    2.1670 H   0  0  0  0  0
    4.3020   -0.8920    0.0810 H   0  0  0  0  0
    6.1200   -1.9380    1.4480 H   0  0  0  0  0
    6.6310   -0.4080    0.6970 H   0  0  0  0  0
    7.1880   -0.4900    3.0190 H   0  0  0  0  0
    7.3860    5.8760   -1.8590 H   0  0  0  0  0
    6.1210    4.7610   -0.0640 H   0  0  0  0  0
    9.0620    4.6150   -3.1490 H   0  0  0  0  0
    9.4670    2.2380   -2.6510 H   0  0  0  0  0
    6.0490    2.9180    1.5150 H   0  0  0  0  0
    6.9160    1.4000    1.1840 H   0  0  0  0  0
    8.2000    1.1230   -0.8590 H   0  0  0  0  0
    1.0860   -4.8660   -2.1630 H   0  0  0  0  0
    2.2330   -5.4890    0.5970 H   0  0  0  0  0
    3.1050   -5.6390   -0.9480 H   0  0  0  0  0
    2.7840   -3.2160   -1.3650 H   0  0  0  0  0
    1.5050   -3.2400    1.4060 H   0  0  0  0  0
    0.3580   -2.6180   -1.3530 H   0  0  0  0  0
   -0.1930   -4.8910    0.6090 H   0  0  0  0  0
    1.3500   -7.2130   -1.7000 H   0  0  0  0  0
    0.4880   -7.0590   -0.2860 H   0  0  0  0  0
    4.6800   -4.0480   -0.0440 H   0  0  0  0  0
    4.2660   -2.4870    0.3510 H   0  0  0  0  0
   -1.6390   -5.5690   -1.1680 H   0  0  0  0  0
   -2.9930   -0.5330   -2.5430 H   0  0  0  0  0
   -2.2060   -2.6110   -1.0970 H   0  0  0  0  0
   -2.5240   -0.8310    1.3260 H   0  0  0  0  0
   -3.7490   -2.8850    1.0230 H   0  0  0  0  0
   -3.2130    0.9800    0.0680 H   0  0  0  0  0
   -3.0070    1.9810   -2.3840 H   0  0  0  0  0
   -1.5290    1.8950   -1.3960 H   0  0  0  0  0
   -1.0340    2.1950   -3.7140 H   0  0  0  0  0
   -6.1510    2.3450    1.9510 H   0  0  0  0  0
   -5.4140    0.1900    1.1030 H   0  0  0  0  0
   -7.1950   -0.9690   -0.1490 H   0  0  0  0  0
   -6.7760    0.0630   -2.2820 H   0  0  0  0  0
   -8.3630    0.3130   -1.8540 H   0  0  0  0  0
   -9.0840    0.5660    0.4410 H   0  0  0  0  0
   -8.3760    0.7750    2.7140 H   0  0  0  0  0
   -8.4920    2.8260    1.3440 H   0  0  0  0  0
   -9.0810    2.5930   -0.9620 H   0  0  0  0  0
   -6.3840    4.4580   -0.2400 H   0  0  0  0  0
   -6.7970    4.6920    1.4760 H   0  0  0  0  0
   -4.1270    3.9300    0.4880 H   0  0  0  0  0
   -4.5680    5.4540    0.9840 H   0  0  0  0  0
  1  2  1  0  0  0
  1  3  1  0  0  0
  1 10  1  0  0  0
  1 50  1  0  0  0
  2 23  1  0  0  0
  3  4  1  0  0  0
  3  5  1  0  0  0
  3 51  1  0  0  0
  4 52  1  0  0  0
  4 53  1  0  0  0
  5  6  1  0  0  0
  5  7  1  0  0  0
  5 54  1  0  0  0
  6 55  1  0  0  0
  7  8  1  0  0  0
  7  9  1  0  0  0
  7 56  1  0  0  0
  8 18  1  0  0  0
  9 10  1  0  0  0
  9 11  1  0  0  0
  9 57  1  0  0  0
 11 12  1  0  0  0
 11 58  1  0  0  0
 11 59  1  0  0  0
 12 60  1  0  0  0
 13 14  2  0  0  0
 13 15  1  0  0  0
 13 61  1  0  0  0
 14 16  1  0  0  0
 14 62  1  0  0  0
 15 17  2  0  0  0
 15 63  1  0  0  0
 16 18  1  0  0  0
 16 19  2  0  0  0
 17 19  1  0  0  0
 17 64  1  0  0  0
 18 65  1  0  0  0
 18 66  1  0  0  0
 19 67  1  0  0  0
 20 25  1  0  0  0
 20 68  1  0  0  0
 21 20  1  0  0  0
 21 22  1  0  0  0
 21 69  1  0  0  0
 21 70  1  0  0  0
 22 23  1  0  0  0
 22 71  1  0  0  0
 23 24  1  0  0  0
 23 72  1  0  0  0
 24 73  1  0  0  0
 25 24  1  0  0  0
 25 74  1  0  0  0
 26 20  1  0  0  0
 26 75  1  0  0  0
 26 76  1  0  0  0
 27 22  1  0  0  0
 27 77  1  0  0  0
 27 78  1  0  0  0
 28 24  1  0  0  0
 29 25  1  0  0  0
 29 79  1  0  0  0
 30 31  1  0  0  0
 30 37  1  0  0  0
 30 80  1  0  0  0
 32 28  1  0  0  0
 32 33  1  0  0  0
 32 31  1  0  0  0
 32 81  1  0  0  0
 33 34  1  0  0  0
 33 35  1  0  0  0
 33 82  1  0  0  0
 34 83  1  0  0  0
 35 36  1  0  0  0
 35 30  1  0  0  0
 35 84  1  0  0  0
 36 41  1  0  0  0
 37 38  1  0  0  0
 37 85  1  0  0  0
 37 86  1  0  0  0
 38 87  1  0  0  0
 39 88  1  0  0  0
 40 39  1  0  0  0
 40 41  1  0  0  0
 41 89  1  0  0  0
 42 44  1  0  0  0
 42 41  1  0  0  0
 42 90  1  0  0  0
 43 42  1  0  0  0
 43 91  1  0  0  0
 43 92  1  0  0  0
 44 46  1  0  0  0
 44 93  1  0  0  0
 45 44  1  0  0  0
 45 94  1  0  0  0
 46 39  1  0  0  0
 46 95  1  0  0  0
 47 46  1  0  0  0
 47 96  1  0  0  0
 48 39  1  0  0  0
 48 97  1  0  0  0
 48 98  1  0  0  0
 49 48  1  0  0  0
 49 99  1  0  0  0
 49100  1  0  0  0
M  END
$$$$
