RRG
  CCTOOLS-0919241043

 51 53  0  0  1  0  0  0  0  0999 V2000
    4.6890   -0.0510    2.5950 C   0  0  0  0  0
    4.1590    0.6470    1.3410 C   0  0  0  0  0
    4.8800    1.9840    1.1580 C   0  0  0  0  0
    4.4080   -0.2260    0.1380 C   0  0  0  0  0
    5.6960   -0.5860   -0.2000 C   0  0  0  0  0
    5.9260   -1.3880   -1.3040 C   0  0  0  0  0
    4.8670   -1.8320   -2.0750 C   0  0  0  0  0
    3.5740   -1.4780   -1.7460 C   0  0  0  0  0
    3.3360   -0.6760   -0.6320 C   0  0  0  0  0
    1.9490   -0.2920   -0.2730 C   0  0  0  0  0
    1.1000    0.2430   -1.2400 C   0  0  0  0  0
   -0.1890    0.5980   -0.9030 C   0  0  0  0  0
    1.4900   -0.4720    1.0310 C   0  0  0  0  0
    0.1980   -0.1200    1.3610 C   0  0  0  0  0
   -0.6420    0.4230    0.3980 C   0  0  0  0  0
   -1.9140    0.7700    0.7260 O   0  0  0  0  0
   -2.7610    1.2100   -0.3380 C   0  0  0  0  0
   -2.5390    2.6800   -0.5810 C   0  0  0  0  0
   -1.7380    3.2890    0.0880 O   0  0  0  0  0
   -3.2320    3.3140   -1.5410 O   0  0  0  0  0
   -4.2230    0.9700    0.0420 C   0  0  0  0  0
   -4.4750   -0.5110    0.1660 C   0  0  0  0  0
   -4.2960   -1.1430    1.3820 C   0  0  0  0  0
   -4.5250   -2.5010    1.4950 C   0  0  0  0  0
   -4.9340   -3.2270    0.3910 C   0  0  0  0  0
   -5.1130   -2.5950   -0.8250 C   0  0  0  0  0
   -4.8890   -1.2350   -0.9360 C   0  0  0  0  0
    4.1750   -1.0030    2.7260 H   0  0  0  0  0
    5.7590   -0.2270    2.4890 H   0  0  0  0  0
    4.5090    0.5810    3.4660 H   0  0  0  0  0
    3.0890    0.8230    1.4470 H   0  0  0  0  0
    5.9510    1.8080    1.0520 H   0  0  0  0  0
    4.5030    2.4810    0.2650 H   0  0  0  0  0
    4.7000    2.6150    2.0290 H   0  0  0  0  0
    6.5270   -0.2420    0.3980 H   0  0  0  0  0
    6.9360   -1.6670   -1.5660 H   0  0  0  0  0
    5.0520   -2.4570   -2.9360 H   0  0  0  0  0
    2.7470   -1.8290   -2.3460 H   0  0  0  0  0
    1.4520    0.3800   -2.2510 H   0  0  0  0  0
   -0.8480    1.0140   -1.6520 H   0  0  0  0  0
    2.1450   -0.8870    1.7830 H   0  0  0  0  0
   -0.1580   -0.2600    2.3710 H   0  0  0  0  0
   -2.5250    0.6520   -1.2440 H   0  0  0  0  0
   -3.0560    4.2570   -1.6600 H   0  0  0  0  0
   -4.4350    1.4550    0.9950 H   0  0  0  0  0
   -4.8720    1.3860   -0.7290 H   0  0  0  0  0
   -3.9760   -0.5760    2.2430 H   0  0  0  0  0
   -4.3850   -2.9960    2.4450 H   0  0  0  0  0
   -5.1130   -4.2890    0.4800 H   0  0  0  0  0
   -5.4320   -3.1620   -1.6860 H   0  0  0  0  0
   -5.0290   -0.7410   -1.8860 H   0  0  0  0  0
  1 28  1  0  0  0
  1 29  1  0  0  0
  1 30  1  0  0  0
  2  1  1  0  0  0
  2 31  1  0  0  0
  3  2  1  0  0  0
  3 32  1  0  0  0
  3 33  1  0  0  0
  3 34  1  0  0  0
  4  2  1  0  0  0
  4  5  2  0  0  0
  5 35  1  0  0  0
  6  5  1  0  0  0
  6 36  1  0  0  0
  7  6  2  0  0  0
  7 37  1  0  0  0
  8  9  2  0  0  0
  8  7  1  0  0  0
  8 38  1  0  0  0
  9  4  1  0  0  0
 10 11  2  0  0  0
 10  9  1  0  0  0
 11 39  1  0  0  0
 12 11  1  0  0  0
 12 40  1  0  0  0
 13 10  1  0  0  0
 13 41  1  0  0  0
 14 13  2  0  0  0
 14 15  1  0  0  0
 14 42  1  0  0  0
 15 12  2  0  0  0
 16 15  1  0  0  0
 17 16  1  0  0  0
 17 43  1  0  0  0
 18 20  1  0  0  0
 18 17  1  0  0  0
 19 18  2  0  0  0
 20 44  1  0  0  0
 21 17  1  0  0  0
 21 45  1  0  0  0
 21 46  1  0  0  0
 22 21  1  0  0  0
 23 22  2  0  0  0
 23 47  1  0  0  0
 24 23  1  0  0  0
 24 48  1  0  0  0
 25 24  2  0  0  0
 25 26  1  0  0  0
 25 49  1  0  0  0
 26 27  2  0  0  0
 26 50  1  0  0  0
 27 22  1  0  0  0
 27 51  1  0  0  0
M  END
$$$$
