RS3
  CCTOOLS-0919241043

 52 54  0  0  1  0  0  0  0  0999 V2000
    4.1170    3.2640   -0.7900 O   0  0  0  0  0
    3.0040    3.0860   -0.3340 C   0  0  0  0  0
    2.2170    4.1250    0.0300 N   0  0  0  0  0
    0.9880    3.9260    0.5280 C   0  0  0  0  0
    0.3300    4.9050    0.8360 O   0  0  0  0  0
    2.4510    1.7270   -0.1600 C   0  0  0  0  0
    1.0950    1.6170    0.4000 C   0  0  0  0  0
    0.4420    2.7260    0.7050 N   0  0  0  0  0
    3.1260    0.6510   -0.4850 N   0  0  0  0  0
    2.5990   -0.5650   -0.3160 C   0  0  0  0  0
    3.3470   -1.7070   -0.6740 C   0  0  0  0  0
    2.8170   -2.9470   -0.5060 C   0  0  0  0  0
    3.6220   -4.1610   -0.8910 C   0  0  0  0  0
    1.5300   -3.1070    0.0230 C   0  0  0  0  0
    1.0060   -4.3810    0.1880 N   0  0  0  0  0
    0.7730   -4.6740    1.6090 C   0  0  0  0  0
   -0.2260   -4.5490   -0.5930 C   0  0  0  0  0
    0.7750   -2.0000    0.3840 C   0  0  0  0  0
    1.2980   -0.7250    0.2190 C   0  0  0  0  0
    0.5510    0.3790    0.5760 N   0  0  0  0  0
   -0.7970    0.2250    1.1300 C   0  0  0  0  0
   -1.8200    0.2260   -0.0070 C   0  0  0  0  0
   -1.7370    1.4610   -0.7210 O   0  0  0  0  0
   -3.2270    0.0650    0.5720 C   0  0  0  0  0
   -3.3090   -1.1700    1.2860 O   0  0  0  0  0
   -4.2500    0.0670   -0.5660 C   0  0  0  0  0
   -4.1670    1.3020   -1.2790 O   0  0  0  0  0
   -5.6570   -0.0940    0.0140 C   0  0  0  0  0
   -6.6010   -0.2100   -1.0530 O   0  0  0  0  0
    2.5480    5.0310   -0.0710 H   0  0  0  0  0
    4.3400   -1.5960   -1.0840 H   0  0  0  0  0
    4.2100   -4.4930   -0.0350 H   0  0  0  0  0
    2.9480   -4.9600   -1.2010 H   0  0  0  0  0
    4.2890   -3.9080   -1.7140 H   0  0  0  0  0
    0.0680   -3.9510    2.0180 H   0  0  0  0  0
    0.3620   -5.6790    1.7090 H   0  0  0  0  0
    1.7150   -4.6110    2.1520 H   0  0  0  0  0
   -0.0100   -4.3940   -1.6510 H   0  0  0  0  0
   -0.6160   -5.5560   -0.4460 H   0  0  0  0  0
   -0.9680   -3.8210   -0.2640 H   0  0  0  0  0
   -0.2160   -2.1300    0.7910 H   0  0  0  0  0
   -0.8600   -0.7170    1.6750 H   0  0  0  0  0
   -1.0070    1.0520    1.8090 H   0  0  0  0  0
   -1.6090   -0.6000   -0.6860 H   0  0  0  0  0
   -1.9130    2.2420   -0.1780 H   0  0  0  0  0
   -3.4370    0.8920    1.2510 H   0  0  0  0  0
   -3.1340   -1.9500    0.7430 H   0  0  0  0  0
   -4.0390   -0.7600   -1.2440 H   0  0  0  0  0
   -4.3430    2.0820   -0.7370 H   0  0  0  0  0
   -5.6950   -0.9910    0.6310 H   0  0  0  0  0
   -5.9010    0.7770    0.6220 H   0  0  0  0  0
   -7.5160   -0.3150   -0.7590 H   0  0  0  0  0
  2  6  1  0  0  0
  2  1  2  0  0  0
  3  2  1  0  0  0
  3 30  1  0  0  0
  4  8  1  0  0  0
  4  3  1  0  0  0
  5  4  2  0  0  0
  6  9  2  0  0  0
  7 20  1  0  0  0
  7  6  1  0  0  0
  8  7  2  0  0  0
  9 10  1  0  0  0
 10 11  2  0  0  0
 11 12  1  0  0  0
 11 31  1  0  0  0
 12 13  1  0  0  0
 13 32  1  0  0  0
 13 33  1  0  0  0
 13 34  1  0  0  0
 14 15  1  0  0  0
 14 12  2  0  0  0
 15 17  1  0  0  0
 16 15  1  0  0  0
 16 35  1  0  0  0
 16 36  1  0  0  0
 16 37  1  0  0  0
 17 38  1  0  0  0
 17 39  1  0  0  0
 17 40  1  0  0  0
 18 14  1  0  0  0
 18 41  1  0  0  0
 19 18  2  0  0  0
 19 10  1  0  0  0
 20 19  1  0  0  0
 21 20  1  0  0  0
 21 42  1  0  0  0
 21 43  1  0  0  0
 22 21  1  0  0  0
 22 44  1  0  0  0
 23 22  1  0  0  0
 23 45  1  0  0  0
 24 26  1  0  0  0
 24 22  1  0  0  0
 24 46  1  0  0  0
 25 24  1  0  0  0
 25 47  1  0  0  0
 26 27  1  0  0  0
 26 48  1  0  0  0
 27 49  1  0  0  0
 28 26  1  0  0  0
 28 50  1  0  0  0
 28 51  1  0  0  0
 29 28  1  0  0  0
 29 52  1  0  0  0
M  END
$$$$
