RS7
  CCTOOLS-0919241043

 39 39  0  0  0  0  0  0  0  0999 V2000
   -4.9930  -10.6400    0.9020 C   0  0  0  0  0
   -5.7110  -10.7070    1.8850 O   0  0  0  0  0
   -5.4130  -10.7990   -0.3750 O   0  0  0  0  0
   -3.5400  -10.3750    0.8930 C   0  0  0  0  0
   -2.8830  -10.1920    2.0570 C   0  0  0  0  0
   -1.4520   -9.9340    2.1810 C   0  0  0  0  0
   -0.5940  -11.0290    2.2830 C   0  0  0  0  0
    0.7810  -10.8280    2.4030 C   0  0  0  0  0
    1.2980   -9.5330    2.4220 C   0  0  0  0  0
    0.4400   -8.4380    2.3210 C   0  0  0  0  0
   -0.9360   -8.6360    2.2000 C   0  0  0  0  0
   -1.7850   -7.4900    2.0990 C   0  0  0  0  0
   -2.4950   -6.5240    2.0110 C   0  0  0  0  0
   -3.3600   -5.3420    1.9020 C   0  0  0  0  0
   -2.5760   -4.0360    2.0370 C   0  0  0  0  0
   -3.4640   -2.7930    1.9110 C   0  0  0  0  0
   -2.6380   -1.5090    2.0220 C   0  0  0  0  0
   -3.5160   -0.2680    1.8670 C   0  0  0  0  0
   -2.6950    1.0090    1.9430 C   0  0  0  0  0
   -6.3760  -10.9770   -0.4250 H   0  0  0  0  0
   -3.0360  -10.3460   -0.0660 H   0  0  0  0  0
   -3.4410  -10.2560    2.9960 H   0  0  0  0  0
   -0.9790  -12.0460    2.2690 H   0  0  0  0  0
    1.4500  -11.6810    2.4810 H   0  0  0  0  0
    2.3690   -9.3770    2.5160 H   0  0  0  0  0
    0.8610   -7.4350    2.3370 H   0  0  0  0  0
   -4.1170   -5.3820    2.6950 H   0  0  0  0  0
   -3.9000   -5.3590    0.9480 H   0  0  0  0  0
   -2.0900   -4.0250    3.0210 H   0  0  0  0  0
   -1.7770   -3.9980    1.2860 H   0  0  0  0  0
   -4.2280   -2.8060    2.6970 H   0  0  0  0  0
   -3.9890   -2.8020    0.9480 H   0  0  0  0  0
   -2.1310   -1.4810    2.9950 H   0  0  0  0  0
   -1.8580   -1.5060    1.2510 H   0  0  0  0  0
   -4.0410   -0.3010    0.9040 H   0  0  0  0  0
   -4.2810   -0.2520    2.6520 H   0  0  0  0  0
   -1.9410    1.0380    1.1500 H   0  0  0  0  0
   -2.1840    1.0890    2.9080 H   0  0  0  0  0
   -3.3430    1.8840    1.8280 H   0  0  0  0  0
  1  4  1  0  0  0
  2  1  2  0  0  0
  3  1  1  0  0  0
  3 20  1  0  0  0
  4  5  2  0  0  0
  4 21  1  0  0  0
  5  6  1  0  0  0
  5 22  1  0  0  0
  6 11  1  0  0  0
  7  6  2  0  0  0
  7  8  1  0  0  0
  7 23  1  0  0  0
  8  9  2  0  0  0
  8 24  1  0  0  0
  9 10  1  0  0  0
  9 25  1  0  0  0
 10 26  1  0  0  0
 11 12  1  0  0  0
 11 10  2  0  0  0
 12 13  3  0  0  0
 13 14  1  0  0  0
 14 15  1  0  0  0
 14 27  1  0  0  0
 14 28  1  0  0  0
 15 29  1  0  0  0
 15 30  1  0  0  0
 16 15  1  0  0  0
 16 31  1  0  0  0
 16 32  1  0  0  0
 17 16  1  0  0  0
 17 33  1  0  0  0
 17 34  1  0  0  0
 18 17  1  0  0  0
 18 35  1  0  0  0
 18 36  1  0  0  0
 19 18  1  0  0  0
 19 37  1  0  0  0
 19 38  1  0  0  0
 19 39  1  0  0  0
M  END
$$$$
