RST
  CCTOOLS-1004241128

 23 23  0  0  1  0  0  0  0  0999 V2000
   -1.4100    0.4950   -0.2150 C   0  0  0  0  0
   -2.5140    1.2420    0.2990 O   0  0  0  0  0
   -0.1520    1.3680   -0.2000 C   0  0  0  0  0
    1.0390    0.5420   -0.6950 C   0  0  0  0  0
    2.2650    1.3480   -0.6120 N   0  0  0  0  0
    1.1850   -0.7030    0.1850 C   0  0  0  0  0
    1.4720   -0.3080    1.5280 O   0  0  0  0  0
   -0.1250   -1.4960    0.1550 C   0  0  0  0  0
   -1.1960   -0.6600    0.5980 O   0  0  0  0  0
   -0.4030   -1.9670   -1.2740 C   0  0  0  0  0
   -1.6250    0.1860   -1.2380 H   0  0  0  0  0
   -3.3460    0.7500    0.3180 H   0  0  0  0  0
   -0.2970    2.2270   -0.8540 H   0  0  0  0  0
    0.0410    1.7110    0.8170 H   0  0  0  0  0
    0.8700    0.2410   -1.7290 H   0  0  0  0  0
    2.1900    2.1790   -1.1800 H   0  0  0  0  0
    2.4800    1.5820    0.3450 H   0  0  0  0  0
    1.9960   -1.3240   -0.1940 H   0  0  0  0  0
    1.5770   -1.0480    2.1420 H   0  0  0  0  0
   -0.0420   -2.3610    0.8130 H   0  0  0  0  0
    0.4150   -2.6040   -1.6120 H   0  0  0  0  0
   -1.3350   -2.5320   -1.2960 H   0  0  0  0  0
   -0.4860   -1.1020   -1.9320 H   0  0  0  0  0
  1  2  1  0  0  0
  1  3  1  0  0  0
  1  9  1  0  0  0
  1 11  1  0  0  0
  2 12  1  0  0  0
  3  4  1  0  0  0
  3 13  1  0  0  0
  3 14  1  0  0  0
  4  5  1  0  0  0
  4  6  1  0  0  0
  4 15  1  0  0  0
  5 16  1  0  0  0
  5 17  1  0  0  0
  6  7  1  0  0  0
  6  8  1  0  0  0
  6 18  1  0  0  0
  7 19  1  0  0  0
  8  9  1  0  0  0
  8 10  1  0  0  0
  8 20  1  0  0  0
 10 21  1  0  0  0
 10 22  1  0  0  0
 10 23  1  0  0  0
M  END
$$$$
