RV1
  CCTOOLS-0919241044

 28 29  0  0  0  0  0  0  0  0999 V2000
   -3.3710   -1.0950    0.0990 C   0  0  0  0  0
   -4.4950   -1.9220    0.1780 N   0  0  0  0  0
    0.6370    1.6330   -1.5310 O   0  0  0  0  0
    0.2720    1.5830   -0.1580 S   0  0  0  0  0
   -3.1300   -0.1510    1.0890 C   0  0  0  0  0
    1.5070    0.8070    0.6260 N   0  0  0  0  0
   -0.0260    2.7410    0.6090 O   0  0  0  0  0
   -2.0180    0.6640    1.0070 C   0  0  0  0  0
    1.5180   -0.8320   -0.8700 O   0  0  0  0  0
   -1.1450    0.5410   -0.0580 C   0  0  0  0  0
   -1.3830   -0.3980   -1.0460 C   0  0  0  0  0
   -2.4900   -1.2200   -0.9670 C   0  0  0  0  0
    1.9890   -0.3550    0.1410 C   0  0  0  0  0
    3.1130   -1.0610    0.8540 C   0  0  0  0  0
    3.6160   -2.3750    0.2540 C   0  0  0  0  0
    4.4720   -1.1120    0.1540 C   0  0  0  0  0
   -5.1070   -1.8360    0.9250 H   0  0  0  0  0
   -4.6620   -2.5810   -0.5140 H   0  0  0  0  0
   -3.8120   -0.0540    1.9210 H   0  0  0  0  0
    1.8840    1.1880    1.4340 H   0  0  0  0  0
   -1.8300    1.3980    1.7760 H   0  0  0  0  0
   -0.6990   -0.4910   -1.8770 H   0  0  0  0  0
   -2.6720   -1.9560   -1.7370 H   0  0  0  0  0
    3.1090   -0.9730    1.9410 H   0  0  0  0  0
    3.9420   -3.1520    0.9450 H   0  0  0  0  0
    3.1330   -2.7290   -0.6570 H   0  0  0  0  0
    4.5540   -0.6340   -0.8220 H   0  0  0  0  0
    5.3630   -1.0570    0.7810 H   0  0  0  0  0
  1  2  1  0  0  0
  1  5  2  0  0  0
  1 12  1  0  0  0
  2 17  1  0  0  0
  2 18  1  0  0  0
  3  4  2  0  0  0
  4  6  1  0  0  0
  4  7  2  0  0  0
  4 10  1  0  0  0
  5  8  1  0  0  0
  5 19  1  0  0  0
  6 13  1  0  0  0
  6 20  1  0  0  0
  8 10  2  0  0  0
  8 21  1  0  0  0
  9 13  2  0  0  0
 10 11  1  0  0  0
 11 12  2  0  0  0
 11 22  1  0  0  0
 12 23  1  0  0  0
 13 14  1  0  0  0
 14 15  1  0  0  0
 14 16  1  0  0  0
 14 24  1  0  0  0
 15 16  1  0  0  0
 15 25  1  0  0  0
 15 26  1  0  0  0
 16 27  1  0  0  0
 16 28  1  0  0  0
M  END
$$$$
