RX8
  CCTOOLS-0919241044

 45 47  0  0  0  0  0  0  0  0999 V2000
    1.8390    2.0650   -1.6730 O   0  0  0  0  0
    0.9000    2.5090   -0.6920 C   0  0  0  0  0
    1.2730    3.9180   -0.2300 C   0  0  0  0  0
   -0.5040    2.5260   -1.3010 C   0  0  0  0  0
    0.9240    1.5560    0.5050 C   0  0  0  0  0
    0.5660    0.2060    0.0620 N   0  0  0  0  0
    1.4220   -0.7410   -0.4100 C   0  0  0  0  0
    2.9110   -0.5640   -0.5630 C   0  0  0  0  0
    3.5650   -0.9690    0.6410 O   0  0  0  0  0
    4.9880   -0.8400    0.6010 C   0  0  0  0  0
    5.5780   -1.2990    1.9360 C   0  0  0  0  0
    0.7620   -1.8220   -0.7100 N   0  0  0  0  0
   -0.5540   -1.6360   -0.4490 C   0  0  0  0  0
   -1.7080   -2.4430   -0.5760 C   0  0  0  0  0
   -1.5770   -3.7310   -1.0670 N   0  0  0  0  0
   -0.6880   -0.3380    0.0530 C   0  0  0  0  0
   -2.0220    0.1190    0.4180 C   0  0  0  0  0
   -2.2490    1.4010    0.9280 C   0  0  0  0  0
   -3.5170    1.7830    1.2560 C   0  0  0  0  0
   -4.5880    0.9110    1.0890 C   0  0  0  0  0
   -4.3990   -0.3450    0.5940 C   0  0  0  0  0
   -3.1090   -0.7720    0.2450 C   0  0  0  0  0
   -2.8990   -2.0050   -0.2410 N   0  0  0  0  0
    2.7510    2.0280   -1.3560 H   0  0  0  0  0
    1.2550    4.5970   -1.0830 H   0  0  0  0  0
    0.5570    4.2570    0.5190 H   0  0  0  0  0
    2.2730    3.9060    0.2040 H   0  0  0  0  0
   -0.7700    1.5220   -1.6300 H   0  0  0  0  0
   -1.2200    2.8650   -0.5520 H   0  0  0  0  0
   -0.5210    3.2050   -2.1540 H   0  0  0  0  0
    1.9240    1.5430    0.9390 H   0  0  0  0  0
    0.2080    1.8950    1.2530 H   0  0  0  0  0
    3.2660   -1.1770   -1.3930 H   0  0  0  0  0
    3.1340    0.4830   -0.7640 H   0  0  0  0  0
    5.3860   -1.4580   -0.2030 H   0  0  0  0  0
    5.2540    0.2020    0.4250 H   0  0  0  0  0
    5.1800   -0.6810    2.7410 H   0  0  0  0  0
    5.3120   -2.3410    2.1130 H   0  0  0  0  0
    6.6640   -1.2010    1.9060 H   0  0  0  0  0
   -2.3600   -4.2970   -1.1600 H   0  0  0  0  0
   -0.7030   -4.0690   -1.3190 H   0  0  0  0  0
   -1.4240    2.0850    1.0620 H   0  0  0  0  0
   -3.6920    2.7730    1.6500 H   0  0  0  0  0
   -5.5830    1.2340    1.3550 H   0  0  0  0  0
   -5.2410   -1.0100    0.4710 H   0  0  0  0  0
  1  2  1  0  0  0
  1 24  1  0  0  0
  2  4  1  0  0  0
  2  3  1  0  0  0
  3 25  1  0  0  0
  3 26  1  0  0  0
  3 27  1  0  0  0
  4 28  1  0  0  0
  4 29  1  0  0  0
  4 30  1  0  0  0
  5  2  1  0  0  0
  5 31  1  0  0  0
  5 32  1  0  0  0
  6  5  1  0  0  0
  7  8  1  0  0  0
  7  6  1  0  0  0
  8  9  1  0  0  0
  8 33  1  0  0  0
  8 34  1  0  0  0
 10 11  1  0  0  0
 10  9  1  0  0  0
 10 35  1  0  0  0
 10 36  1  0  0  0
 11 37  1  0  0  0
 11 38  1  0  0  0
 11 39  1  0  0  0
 12  7  2  0  0  0
 13 12  1  0  0  0
 13 16  2  0  0  0
 14 23  2  0  0  0
 14 13  1  0  0  0
 15 14  1  0  0  0
 15 40  1  0  0  0
 15 41  1  0  0  0
 16 17  1  0  0  0
 16  6  1  0  0  0
 17 18  2  0  0  0
 18 19  1  0  0  0
 18 42  1  0  0  0
 19 43  1  0  0  0
 20 19  2  0  0  0
 20 44  1  0  0  0
 21 20  1  0  0  0
 21 45  1  0  0  0
 22 21  2  0  0  0
 22 17  1  0  0  0
 23 22  1  0  0  0
M  END
$$$$
