S10
  CCTOOLS-0919241044

 33 32  0  0  0  0  0  0  0  0999 V2000
    3.7810   -1.4220    0.0000 O   0  0  0  0  0
    3.6700   -0.2120    0.0000 C   0  0  0  0  0
    4.7690    0.5660    0.0000 O   0  0  0  0  0
    6.0880   -0.0420    0.0000 C   0  0  0  0  0
    7.1540    1.0550    0.0000 C   0  0  0  0  0
    2.4450    0.3520    0.0000 N   0  0  0  0  0
    1.2490   -0.4940    0.0000 C   0  0  0  0  0
    0.0000    0.3900    0.0000 C   0  0  0  0  0
   -1.2490   -0.4940    0.0000 C   0  0  0  0  0
   -2.4450    0.3520    0.0000 N   0  0  0  0  0
   -3.6700   -0.2120    0.0000 C   0  0  0  0  0
   -3.7810   -1.4220    0.0000 O   0  0  0  0  0
   -4.7690    0.5660    0.0000 O   0  0  0  0  0
   -6.0880   -0.0420    0.0000 C   0  0  0  0  0
   -7.1540    1.0550    0.0000 C   0  0  0  0  0
    6.2030   -0.6610   -0.8900 H   0  0  0  0  0
    6.2030   -0.6610    0.8900 H   0  0  0  0  0
    7.0390    1.6730    0.8900 H   0  0  0  0  0
    8.1440    0.5990    0.0000 H   0  0  0  0  0
    7.0390    1.6730   -0.8900 H   0  0  0  0  0
    2.3560    1.3180    0.0000 H   0  0  0  0  0
    1.2490   -1.1230   -0.8900 H   0  0  0  0  0
    1.2490   -1.1230    0.8900 H   0  0  0  0  0
    0.0000    1.0190    0.8900 H   0  0  0  0  0
    0.0000    1.0190   -0.8900 H   0  0  0  0  0
   -1.2490   -1.1230   -0.8900 H   0  0  0  0  0
   -1.2490   -1.1230    0.8900 H   0  0  0  0  0
   -2.3560    1.3180    0.0000 H   0  0  0  0  0
   -6.2030   -0.6610   -0.8900 H   0  0  0  0  0
   -6.2030   -0.6610    0.8900 H   0  0  0  0  0
   -8.1440    0.5990    0.0000 H   0  0  0  0  0
   -7.0390    1.6730    0.8900 H   0  0  0  0  0
   -7.0390    1.6730   -0.8900 H   0  0  0  0  0
  1  2  2  0  0  0
  2  3  1  0  0  0
  2  6  1  0  0  0
  3  4  1  0  0  0
  4  5  1  0  0  0
  4 16  1  0  0  0
  4 17  1  0  0  0
  5 18  1  0  0  0
  5 19  1  0  0  0
  5 20  1  0  0  0
  6  7  1  0  0  0
  6 21  1  0  0  0
  7  8  1  0  0  0
  7 22  1  0  0  0
  7 23  1  0  0  0
  8  9  1  0  0  0
  8 24  1  0  0  0
  8 25  1  0  0  0
  9 10  1  0  0  0
  9 26  1  0  0  0
  9 27  1  0  0  0
 10 11  1  0  0  0
 10 28  1  0  0  0
 11 12  2  0  0  0
 11 13  1  0  0  0
 13 14  1  0  0  0
 14 15  1  0  0  0
 14 29  1  0  0  0
 14 30  1  0  0  0
 15 31  1  0  0  0
 15 32  1  0  0  0
 15 33  1  0  0  0
M  END
$$$$
