S2C
  CCTOOLS-0919241027

 26 25  0  0  1  0  0  0  0  0999 V2000
    4.3670    1.5630   -0.6350 O   0  0  0  0  0
    2.9810   -1.7100    0.2460 N   0  0  0  0  0
    2.8730   -0.3860   -0.3810 C   0  0  0  0  0
    4.0160    0.4820    0.0790 C   0  0  0  0  0
    4.6170    0.2040    1.0900 O   0  0  0  0  0
    1.5470    0.2620    0.0220 C   0  0  0  0  0
    0.1710   -0.7830   -0.5320 S   0  0  0  0  0
   -1.2900    0.1370    0.0280 C   0  0  0  0  0
   -2.5550   -0.6260   -0.3700 C   0  0  0  0  0
   -3.8410    0.1830    0.1230 B   0  5  0  0  0
   -3.8520    1.4190   -0.4600 O   0  0  0  0  0
   -4.9710   -0.4990   -0.2320 O   0  0  0  0  0
   -3.7990    0.3200    1.4820 O   0  0  0  0  0
    5.1060    2.0890   -0.3000 H   0  0  0  0  0
    3.8180   -2.1860   -0.0560 H   0  0  0  0  0
    2.9480   -1.6380    1.2520 H   0  0  0  0  0
    2.9110   -0.4930   -1.4650 H   0  0  0  0  0
    1.5090    0.3690    1.1060 H   0  0  0  0  0
    1.4670    1.2450   -0.4430 H   0  0  0  0  0
   -1.2570    0.2460    1.1120 H   0  0  0  0  0
   -1.2990    1.1220   -0.4380 H   0  0  0  0  0
   -2.5880   -0.7360   -1.4530 H   0  0  0  0  0
   -2.5460   -1.6120    0.0960 H   0  0  0  0  0
   -4.6070    1.9670   -0.2060 H   0  0  0  0  0
   -5.0670   -0.6340   -1.1850 H   0  0  0  0  0
   -3.0220    0.7960    1.8060 H   0  0  0  0  0
  1  4  1  0  0  0
  1 14  1  0  0  0
  2  3  1  0  0  0
  2 15  1  0  0  0
  2 16  1  0  0  0
  3  4  1  0  0  0
  3  6  1  0  0  0
  3 17  1  0  0  0
  4  5  2  0  0  0
  6  7  1  0  0  0
  6 18  1  0  0  0
  6 19  1  0  0  0
  7  8  1  0  0  0
  8  9  1  0  0  0
  8 20  1  0  0  0
  8 21  1  0  0  0
  9 10  1  0  0  0
  9 22  1  0  0  0
  9 23  1  0  0  0
 10 11  1  0  0  0
 10 12  1  0  0  0
 10 13  1  0  0  0
 11 24  1  0  0  0
 12 25  1  0  0  0
 13 26  1  0  0  0
M  CHG  1  10  -1
M  END
$$$$
