S45
  CCTOOLS-0919241027

 32 34  0  0  1  0  0  0  0  0999 V2000
   -6.1770   -0.4580   -0.0120 CL  0  0  0  0  0
   -4.4610   -0.2010   -0.0060 C   0  0  0  0  0
   -3.9570    1.0890   -0.0000 C   0  0  0  0  0
   -2.5930    1.2990    0.0050 C   0  0  0  0  0
   -1.7230    0.2110    0.0050 C   0  0  0  0  0
   -2.2350   -1.0850   -0.0010 C   0  0  0  0  0
   -3.6000   -1.2850   -0.0010 C   0  0  0  0  0
   -0.2550    0.4310    0.0100 C   0  0  0  0  0
    0.7000   -0.5260    0.0100 N   0  0  0  0  0
    1.8420    0.1170    0.0160 C   0  0  0  0  0
    1.5580    1.4230    0.0180 O   0  0  0  0  0
    0.3560    1.5870    0.0090 N   0  0  0  0  0
    3.2160   -0.5010    0.0190 C   0  0  0  0  0
    3.9740   -0.0550    1.2720 C   0  0  0  0  0
    5.3900   -0.6380    1.2380 C   0  0  0  0  0
    6.0940   -0.1780   -0.0410 C   0  0  0  0  0
    5.3310   -0.6300   -1.2110 N   0  0  0  0  0
    3.9840   -0.0450   -1.2240 C   0  0  0  0  0
   -4.6320    1.9320   -0.0000 H   0  0  0  0  0
   -2.2010    2.3050    0.0090 H   0  0  0  0  0
   -1.5640   -1.9320   -0.0010 H   0  0  0  0  0
   -3.9980   -2.2890   -0.0010 H   0  0  0  0  0
    3.1270   -1.5870    0.0140 H   0  0  0  0  0
    4.0290    1.0330    1.2970 H   0  0  0  0  0
    3.4540   -0.4150    2.1600 H   0  0  0  0  0
    5.9480   -0.2890    2.1060 H   0  0  0  0  0
    5.3360   -1.7260    1.2520 H   0  0  0  0  0
    6.1600    0.9100   -0.0480 H   0  0  0  0  0
    7.0970   -0.6030   -0.0760 H   0  0  0  0  0
    5.8240   -0.4220   -2.0670 H   0  0  0  0  0
    3.4540   -0.3730   -2.1190 H   0  0  0  0  0
    4.0600    1.0420   -1.2260 H   0  0  0  0  0
  1  2  1  0  0  0
  2  3  2  0  0  0
  2  7  1  0  0  0
  3  4  1  0  0  0
  3 19  1  0  0  0
  4  5  2  0  0  0
  4 20  1  0  0  0
  5  6  1  0  0  0
  5  8  1  0  0  0
  6  7  2  0  0  0
  6 21  1  0  0  0
  7 22  1  0  0  0
  8  9  1  0  0  0
  8 12  2  0  0  0
  9 10  2  0  0  0
 10 11  1  0  0  0
 10 13  1  0  0  0
 11 12  1  0  0  0
 13 14  1  0  0  0
 13 18  1  0  0  0
 13 23  1  0  0  0
 14 15  1  0  0  0
 14 24  1  0  0  0
 14 25  1  0  0  0
 15 16  1  0  0  0
 15 26  1  0  0  0
 15 27  1  0  0  0
 16 17  1  0  0  0
 16 28  1  0  0  0
 16 29  1  0  0  0
 17 18  1  0  0  0
 17 30  1  0  0  0
 18 31  1  0  0  0
 18 32  1  0  0  0
M  END
$$$$
