S60
  CCTOOLS-0919241027

 25 27  0  0  0  0  0  0  0  0999 V2000
   -3.1070    0.7820   -0.0010 C   0  0  0  0  0
   -4.2770    1.5000   -0.0010 N   0  0  0  0  0
   -1.9740    1.4360   -0.0010 N   0  0  0  0  0
   -0.7800    0.7890   -0.0010 C   0  0  0  0  0
    0.4190    1.4910   -0.0000 C   0  0  0  0  0
    1.6260    0.7940    0.0000 C   0  0  0  0  0
    2.9250    1.1900    0.0000 N   0  0  0  0  0
    3.7030    0.1470    0.0000 C   0  0  0  0  0
    5.2090    0.1960    0.0000 C   0  0  0  0  0
    2.9630   -0.9930   -0.0000 N   0  0  0  0  0
    1.6300   -0.6170   -0.0000 C   0  0  0  0  0
    0.4410   -1.3210   -0.0000 C   0  0  0  0  0
   -0.7660   -0.6280   -0.0010 C   0  0  0  0  0
   -2.0560   -1.3330   -0.0010 C   0  0  0  0  0
   -2.1100   -2.5490   -0.0010 O   0  0  0  0  0
   -3.1810   -0.5810    0.0040 N   0  0  0  0  0
   -4.2510    2.4700   -0.0010 H   0  0  0  0  0
   -5.1300    1.0380   -0.0010 H   0  0  0  0  0
    0.4160    2.5710   -0.0000 H   0  0  0  0  0
    5.5730    0.2070    1.0280 H   0  0  0  0  0
    5.6010   -0.6820   -0.5130 H   0  0  0  0  0
    5.5440    1.0970   -0.5140 H   0  0  0  0  0
    3.3040   -1.9010   -0.0000 H   0  0  0  0  0
    0.4480   -2.4010   -0.0010 H   0  0  0  0  0
   -4.0480   -1.0160    0.0080 H   0  0  0  0  0
  1  2  1  0  0  0
  1  3  2  0  0  0
  1 16  1  0  0  0
  2 17  1  0  0  0
  2 18  1  0  0  0
  3  4  1  0  0  0
  4  5  2  0  0  0
  4 13  1  0  0  0
  5  6  1  0  0  0
  5 19  1  0  0  0
  6  7  1  0  0  0
  6 11  2  0  0  0
  7  8  2  0  0  0
  8  9  1  0  0  0
  8 10  1  0  0  0
  9 20  1  0  0  0
  9 21  1  0  0  0
  9 22  1  0  0  0
 10 11  1  0  0  0
 10 23  1  0  0  0
 11 12  1  0  0  0
 12 13  2  0  0  0
 12 24  1  0  0  0
 13 14  1  0  0  0
 14 15  2  0  0  0
 14 16  1  0  0  0
 16 25  1  0  0  0
M  END
$$$$
