SAL
  CCTOOLS-1004241129

 16 16  0  0  0  0  0  0  0  0999 V2000
    0.2260    0.0060    1.6350 C   0  0  0  0  0
   -0.8370    0.0180    2.2220 O   0  0  0  0  0
    1.3790   -0.0070    2.3320 O   0  0  0  0  0
    0.2550    0.0050    0.1610 C   0  0  0  0  0
   -0.9410    0.0120   -0.5670 C   0  0  0  0  0
   -0.9020    0.0180   -1.9530 C   0  0  0  0  0
    0.3110    0.0030   -2.6110 C   0  0  0  0  0
    1.4970   -0.0100   -1.8940 C   0  0  0  0  0
    1.4770   -0.0090   -0.5170 C   0  0  0  0  0
   -2.1330    0.0270    0.0800 O   0  0  0  0  0
    1.3600   -0.0060    3.2990 H   0  0  0  0  0
   -1.8210    0.0290   -2.5190 H   0  0  0  0  0
    0.3370    0.0020   -3.6910 H   0  0  0  0  0
    2.4420   -0.0210   -2.4180 H   0  0  0  0  0
    2.4040   -0.0190    0.0370 H   0  0  0  0  0
   -2.3920   -0.8950    0.2090 H   0  0  0  0  0
  1  2  2  0  0  0
  1  3  1  0  0  0
  1  4  1  0  0  0
  3 11  1  0  0  0
  4  5  1  0  0  0
  4  9  2  0  0  0
  5  6  2  0  0  0
  5 10  1  0  0  0
  6  7  1  0  0  0
  6 12  1  0  0  0
  7  8  2  0  0  0
  7 13  1  0  0  0
  8  9  1  0  0  0
  8 14  1  0  0  0
  9 15  1  0  0  0
 10 16  1  0  0  0
M  END
$$$$
