SAR
  CCTOOLS-1004241129

 13 12  0  0  0  0  0  0  0  0999 V2000
    1.3760   -0.3910   -0.0220 N   0  0  0  0  0
    0.3330    0.6440    0.0020 C   0  0  0  0  0
   -1.0240   -0.0110   -0.0050 C   0  0  0  0  0
   -1.1140   -1.2160   -0.0270 O   0  0  0  0  0
    2.7160    0.2120   -0.0150 C   0  0  0  0  0
   -2.1340    0.7440    0.0140 O   0  0  0  0  0
    1.2650   -1.0340    0.7480 H   0  0  0  0  0
    0.4410    1.2470    0.9030 H   0  0  0  0  0
    0.4340    1.2810   -0.8770 H   0  0  0  0  0
    2.8330    0.8460   -0.8940 H   0  0  0  0  0
    2.8400    0.8120    0.8860 H   0  0  0  0  0
    3.4680   -0.5770   -0.0330 H   0  0  0  0  0
   -2.9810    0.2800    0.0080 H   0  0  0  0  0
  1  2  1  0  0  0
  1  5  1  0  0  0
  1  7  1  0  0  0
  2  3  1  0  0  0
  2  8  1  0  0  0
  2  9  1  0  0  0
  3  4  2  0  0  0
  3  6  1  0  0  0
  5 10  1  0  0  0
  5 11  1  0  0  0
  5 12  1  0  0  0
  6 13  1  0  0  0
M  END
$$$$
