SAS
  CCTOOLS-0919241028

 42 44  0  0  0  0  0  0  0  0999 V2000
    1.0670    0.5460   -4.8410 C   0  0  0  0  0
    1.8730    1.5060   -5.4430 C   0  0  0  0  0
    3.1980    1.6090   -5.0600 C   0  0  0  0  0
    3.6740    0.7440   -4.0840 C   0  0  0  0  0
    2.8180   -0.1850   -3.5280 C   0  0  0  0  0
    1.5570   -0.2570   -3.9090 N   0  0  0  0  0
   -0.2660    0.4320   -5.2160 N   0  0  0  0  0
   -1.2320   -0.7080   -4.5040 S   0  0  0  0  0
   -0.5390   -1.9410   -4.6420 O   0  0  0  0  0
   -2.5480   -0.4470   -4.9730 O   0  0  0  0  0
   -1.2640   -0.3670   -2.7760 C   0  0  0  0  0
   -2.2310    0.4750   -2.2580 C   0  0  0  0  0
   -2.2610    0.7470   -0.9060 C   0  0  0  0  0
   -1.3130    0.1680   -0.0590 C   0  0  0  0  0
   -0.3360   -0.6770   -0.5900 C   0  0  0  0  0
   -0.3210   -0.9450   -1.9430 C   0  0  0  0  0
   -1.3370    0.4330    1.2810 N   0  0  0  0  0
   -0.4600   -0.1020    2.0610 N   0  0  0  0  0
   -0.4850    0.1610    3.4000 C   0  0  0  0  0
    0.4620   -0.4170    4.2430 C   0  0  0  0  0
    0.4320   -0.1430    5.6090 C   0  0  0  0  0
   -0.5540    0.7090    6.1270 C   0  0  0  0  0
   -1.4900    1.2850    5.2780 C   0  0  0  0  0
   -1.4620    1.0150    3.9280 C   0  0  0  0  0
    1.4300   -0.7520    6.5080 C   0  0  0  0  0
   -0.5870    0.9790    7.4550 O   0  0  0  0  0
    1.4020   -0.5110    7.6990 O   0  0  0  0  0
    2.3740   -1.5740    6.0090 O   0  0  0  0  0
    1.4700    2.1630   -6.2000 H   0  0  0  0  0
    3.8470    2.3440   -5.5110 H   0  0  0  0  0
    4.7040    0.7970   -3.7630 H   0  0  0  0  0
    3.1850   -0.8600   -2.7680 H   0  0  0  0  0
   -0.6310    1.0200   -5.8960 H   0  0  0  0  0
   -2.9630    0.9220   -2.9140 H   0  0  0  0  0
   -3.0170    1.4050   -0.5030 H   0  0  0  0  0
    0.4000   -1.1280    0.0580 H   0  0  0  0  0
    0.4290   -1.6020   -2.3540 H   0  0  0  0  0
    1.2170   -1.0760    3.8380 H   0  0  0  0  0
   -2.2460    1.9450    5.6780 H   0  0  0  0  0
   -2.1950    1.4630    3.2740 H   0  0  0  0  0
   -1.1590    0.3130    7.8610 H   0  0  0  0  0
    3.0280   -1.9730    6.5980 H   0  0  0  0  0
  1  2  1  0  0  0
  1  6  2  0  0  0
  1  7  1  0  0  0
  2  3  2  0  0  0
  2 29  1  0  0  0
  3  4  1  0  0  0
  3 30  1  0  0  0
  4  5  2  0  0  0
  4 31  1  0  0  0
  5  6  1  0  0  0
  5 32  1  0  0  0
  7  8  1  0  0  0
  7 33  1  0  0  0
  8  9  2  0  0  0
  8 10  2  0  0  0
  8 11  1  0  0  0
 11 12  2  0  0  0
 11 16  1  0  0  0
 12 13  1  0  0  0
 12 34  1  0  0  0
 13 14  2  0  0  0
 13 35  1  0  0  0
 14 15  1  0  0  0
 14 17  1  0  0  0
 15 16  2  0  0  0
 15 36  1  0  0  0
 16 37  1  0  0  0
 17 18  2  0  0  0
 18 19  1  0  0  0
 19 20  1  0  0  0
 19 24  2  0  0  0
 20 21  2  0  0  0
 20 38  1  0  0  0
 21 22  1  0  0  0
 21 25  1  0  0  0
 22 23  2  0  0  0
 22 26  1  0  0  0
 23 24  1  0  0  0
 23 39  1  0  0  0
 24 40  1  0  0  0
 25 27  2  0  0  0
 25 28  1  0  0  0
 26 41  1  0  0  0
 28 42  1  0  0  0
M  END
$$$$
