SB1
  CCTOOLS-0919241028

 70 71  0  0  1  0  0  0  0  0999 V2000
   -0.4230    0.5960   -3.2430 N   0  0  0  0  0
    0.4360    0.1880   -2.2970 C   0  0  0  0  0
    0.0840    0.1310   -1.1370 O   0  0  0  0  0
    1.8200   -0.2390   -2.6500 C   0  0  0  0  0
    2.1460   -0.3440   -3.8110 O   0  0  0  0  0
    2.8250   -0.5690   -1.5770 C   0  0  0  0  0
    2.8010    0.4940   -0.4790 C   0  0  0  0  0
    2.8420   -0.1510    0.8190 O   0  0  0  0  0
    3.2980    0.5100    1.8940 C   0  0  0  0  0
    3.5760    1.6830    1.8120 O   0  0  0  0  0
    3.4790   -0.2150    3.2020 C   0  0  0  0  0
    2.7170    0.5160    4.3080 C   0  0  0  0  0
    1.7300   -0.4460    4.9720 C   0  0  0  0  0
    0.5450    0.3410    5.5340 C   0  0  0  0  0
   -0.6830   -0.5670    5.6080 C   0  0  0  0  0
   -1.9410    0.2430    5.2910 C   0  0  0  0  0
   -2.7860   -0.5070    4.2590 C   0  0  0  0  0
   -3.8980    0.4080    3.7450 C   0  0  0  0  0
   -4.5410   -0.2150    2.5050 C   0  0  0  0  0
   -4.1060    0.5510    1.2550 C   0  0  0  0  0
   -3.2340   -0.3500    0.3790 C   0  0  0  0  0
   -2.8260    0.3720   -0.8110 O   0  0  0  0  0
   -2.2170   -0.2760   -1.8160 C   0  0  0  0  0
   -1.9550   -1.4500   -1.6970 O   0  0  0  0  0
   -1.8790    0.4440   -3.0920 C   0  0  0  0  0
   -2.4100   -0.3640   -4.2820 C   0  0  0  0  0
   -1.9970    0.3120   -5.5910 C   0  0  0  0  0
   -0.4680    0.3700   -5.6700 C   0  0  0  0  0
    0.0500    1.2090   -4.4960 C   0  0  0  0  0
    4.2270   -0.6130   -2.1990 C   0  0  0  0  0
    2.5050   -1.9390   -0.9720 C   0  0  0  0  0
    3.6760    1.1390   -0.5860 H   0  0  0  0  0
    1.9020    1.0990   -0.5620 H   0  0  0  0  0
    3.0980   -1.2320    3.1080 H   0  0  0  0  0
    4.5390   -0.2490    3.4540 H   0  0  0  0  0
    3.4230    0.8820    5.0550 H   0  0  0  0  0
    2.1730    1.3580    3.8810 H   0  0  0  0  0
    1.3720   -1.1640    4.2350 H   0  0  0  0  0
    2.2300   -0.9760    5.7820 H   0  0  0  0  0
    0.7900    0.7020    6.5330 H   0  0  0  0  0
    0.3330    1.1900    4.8840 H   0  0  0  0  0
   -0.5810   -1.3760    4.8850 H   0  0  0  0  0
   -0.7640   -0.9860    6.6110 H   0  0  0  0  0
   -2.5220    0.3810    6.2030 H   0  0  0  0  0
   -1.6580    1.2160    4.8910 H   0  0  0  0  0
   -2.1530   -0.8130    3.4260 H   0  0  0  0  0
   -3.2270   -1.3890    4.7240 H   0  0  0  0  0
   -4.6530    0.5310    4.5220 H   0  0  0  0  0
   -3.4790    1.3810    3.4910 H   0  0  0  0  0
   -4.2290   -1.2560    2.4200 H   0  0  0  0  0
   -5.6270   -0.1710    2.5990 H   0  0  0  0  0
   -4.9880    0.8570    0.6930 H   0  0  0  0  0
   -3.5370    1.4340    1.5450 H   0  0  0  0  0
   -2.3520   -0.6580    0.9400 H   0  0  0  0  0
   -3.8060   -1.2330    0.0890 H   0  0  0  0  0
   -2.3430    1.4320   -3.0900 H   0  0  0  0  0
   -1.9980   -1.3720   -4.2480 H   0  0  0  0  0
   -3.4980   -0.4130   -4.2260 H   0  0  0  0  0
   -2.3840   -0.2580   -6.4350 H   0  0  0  0  0
   -2.4000    1.3250   -5.6200 H   0  0  0  0  0
   -0.0620   -0.6390   -5.6050 H   0  0  0  0  0
   -0.1670    0.8280   -6.6100 H   0  0  0  0  0
    1.1330    1.2570   -4.5150 H   0  0  0  0  0
   -0.3570    2.2210   -4.5710 H   0  0  0  0  0
    4.2540   -1.3740   -2.9780 H   0  0  0  0  0
    4.4620    0.3580   -2.6310 H   0  0  0  0  0
    4.9590   -0.8550   -1.4280 H   0  0  0  0  0
    2.5360   -2.6970   -1.7550 H   0  0  0  0  0
    3.2410   -2.1780   -0.2050 H   0  0  0  0  0
    1.5100   -1.9160   -0.5280 H   0  0  0  0  0
  1  2  1  0  0  0
  1 25  1  0  0  0
  1 29  1  0  0  0
  2  3  2  0  0  0
  2  4  1  0  0  0
  4  5  2  0  0  0
  4  6  1  0  0  0
  6  7  1  0  0  0
  6 30  1  0  0  0
  6 31  1  0  0  0
  7  8  1  0  0  0
  7 32  1  0  0  0
  7 33  1  0  0  0
  8  9  1  0  0  0
  9 10  2  0  0  0
  9 11  1  0  0  0
 11 12  1  0  0  0
 11 34  1  0  0  0
 11 35  1  0  0  0
 12 13  1  0  0  0
 12 36  1  0  0  0
 12 37  1  0  0  0
 13 14  1  0  0  0
 13 38  1  0  0  0
 13 39  1  0  0  0
 14 15  1  0  0  0
 14 40  1  0  0  0
 14 41  1  0  0  0
 15 16  1  0  0  0
 15 42  1  0  0  0
 15 43  1  0  0  0
 16 17  1  0  0  0
 16 44  1  0  0  0
 16 45  1  0  0  0
 17 18  1  0  0  0
 17 46  1  0  0  0
 17 47  1  0  0  0
 18 19  1  0  0  0
 18 48  1  0  0  0
 18 49  1  0  0  0
 19 20  1  0  0  0
 19 50  1  0  0  0
 19 51  1  0  0  0
 20 21  1  0  0  0
 20 52  1  0  0  0
 20 53  1  0  0  0
 21 22  1  0  0  0
 21 54  1  0  0  0
 21 55  1  0  0  0
 22 23  1  0  0  0
 23 24  2  0  0  0
 23 25  1  0  0  0
 25 26  1  0  0  0
 25 56  1  0  0  0
 26 27  1  0  0  0
 26 57  1  0  0  0
 26 58  1  0  0  0
 27 28  1  0  0  0
 27 59  1  0  0  0
 27 60  1  0  0  0
 28 29  1  0  0  0
 28 61  1  0  0  0
 28 62  1  0  0  0
 29 63  1  0  0  0
 29 64  1  0  0  0
 30 65  1  0  0  0
 30 66  1  0  0  0
 30 67  1  0  0  0
 31 68  1  0  0  0
 31 69  1  0  0  0
 31 70  1  0  0  0
M  END
$$$$
