SB3
  CCTOOLS-0919241028

 68 70  0  0  1  0  0  0  0  0999 V2000
   -0.9030    0.2470   -0.0230 C   0  0  0  0  0
   -2.0810   -0.4460    0.6090 C   0  0  0  0  0
   -3.3410    0.3920    0.4010 C   0  0  0  0  0
   -4.5070   -0.2450    1.1600 C   0  0  0  0  0
   -4.1880   -0.2780    2.6560 C   0  0  0  0  0
   -2.9360   -1.1300    2.8880 C   0  0  0  0  0
   -1.8470   -0.6090    2.0500 N   0  0  0  0  0
   -0.4710    1.2670    0.4590 O   0  0  0  0  0
   -0.3320   -0.2680   -1.1230 O   0  0  0  0  0
   -0.6580   -0.2820    2.5940 C   0  0  0  0  0
    0.3450   -0.2980    1.9120 O   0  0  0  0  0
   -0.5760    0.1000    4.0330 C   0  0  0  0  0
   -1.5870    0.2330    4.6800 O   0  0  0  0  0
    0.7660    0.3200    4.6790 C   0  0  0  0  0
    0.5700    0.7010    6.1470 C   0  0  0  0  0
    1.9340    0.9240    6.8030 C   0  0  0  0  0
    1.5020    1.4490    3.9540 C   0  0  0  0  0
    1.5910   -0.9640    4.5900 C   0  0  0  0  0
    0.8030    0.4000   -1.7330 C   0  0  0  0  0
    0.8030    0.1330   -3.2390 C   0  0  0  0  0
   -0.4920    0.6690   -3.8520 C   0  0  0  0  0
   -0.4920    0.4070   -5.3360 C   0  0  0  0  0
   -1.0180   -0.7720   -5.8290 C   0  0  0  0  0
   -1.0180   -1.0120   -7.1900 C   0  0  0  0  0
   -0.4920   -0.0740   -8.0580 C   0  0  0  0  0
    0.0320    1.1050   -7.5650 C   0  0  0  0  0
    0.0280    1.3480   -6.2040 C   0  0  0  0  0
    2.0800   -0.1270   -1.1290 C   0  0  0  0  0
    2.1390   -1.4270   -0.6650 C   0  0  0  0  0
    3.3100   -1.9110   -0.1120 C   0  0  0  0  0
    4.4210   -1.0940   -0.0230 C   0  0  0  0  0
    4.3620    0.2060   -0.4880 C   0  0  0  0  0
    3.1930    0.6880   -1.0450 C   0  0  0  0  0
   -2.2160   -1.4260    0.1530 H   0  0  0  0  0
   -3.5790    0.4370   -0.6600 H   0  0  0  0  0
   -3.1700    1.4000    0.7790 H   0  0  0  0  0
   -4.6620   -1.2620    0.7990 H   0  0  0  0  0
   -5.4120    0.3390    0.9940 H   0  0  0  0  0
   -5.0280   -0.7120    3.1980 H   0  0  0  0  0
   -4.0090    0.7350    3.0120 H   0  0  0  0  0
   -3.1420   -2.1650    2.6170 H   0  0  0  0  0
   -2.6460   -1.0760    3.9380 H   0  0  0  0  0
    0.0460   -0.1030    6.6640 H   0  0  0  0  0
   -0.0170    1.6160    6.2100 H   0  0  0  0  0
    1.7940    1.1950    7.8500 H   0  0  0  0  0
    2.5220    0.0090    6.7410 H   0  0  0  0  0
    2.4580    1.7290    6.2870 H   0  0  0  0  0
    0.9140    2.3650    4.0160 H   0  0  0  0  0
    2.4730    1.6090    4.4210 H   0  0  0  0  0
    1.6420    1.1790    2.9070 H   0  0  0  0  0
    1.0680   -1.7680    5.1070 H   0  0  0  0  0
    1.7320   -1.2350    3.5440 H   0  0  0  0  0
    2.5630   -0.8050    5.0580 H   0  0  0  0  0
    0.7330    1.4730   -1.5530 H   0  0  0  0  0
    1.6560    0.6350   -3.6970 H   0  0  0  0  0
    0.8740   -0.9380   -3.4190 H   0  0  0  0  0
   -1.3440    0.1670   -3.3940 H   0  0  0  0  0
   -0.5620    1.7420   -3.6720 H   0  0  0  0  0
   -1.4280   -1.5050   -5.1510 H   0  0  0  0  0
   -1.4280   -1.9340   -7.5760 H   0  0  0  0  0
   -0.4920   -0.2620   -9.1220 H   0  0  0  0  0
    0.4430    1.8390   -8.2430 H   0  0  0  0  0
    0.4380    2.2690   -5.8180 H   0  0  0  0  0
    1.2710   -2.0660   -0.7350 H   0  0  0  0  0
    3.3560   -2.9270    0.2500 H   0  0  0  0  0
    5.3360   -1.4720    0.4090 H   0  0  0  0  0
    5.2300    0.8440   -0.4180 H   0  0  0  0  0
    3.1460    1.7040   -1.4080 H   0  0  0  0  0
  1  2  1  0  0  0
  1  8  2  0  0  0
  1  9  1  0  0  0
  2  3  1  0  0  0
  2  7  1  0  0  0
  2 34  1  0  0  0
  3  4  1  0  0  0
  3 35  1  0  0  0
  3 36  1  0  0  0
  4  5  1  0  0  0
  4 37  1  0  0  0
  4 38  1  0  0  0
  5  6  1  0  0  0
  5 39  1  0  0  0
  5 40  1  0  0  0
  6  7  1  0  0  0
  6 41  1  0  0  0
  6 42  1  0  0  0
  7 10  1  0  0  0
  9 19  1  0  0  0
 10 11  2  0  0  0
 10 12  1  0  0  0
 12 13  2  0  0  0
 12 14  1  0  0  0
 14 15  1  0  0  0
 14 17  1  0  0  0
 14 18  1  0  0  0
 15 16  1  0  0  0
 15 43  1  0  0  0
 15 44  1  0  0  0
 16 45  1  0  0  0
 16 46  1  0  0  0
 16 47  1  0  0  0
 17 48  1  0  0  0
 17 49  1  0  0  0
 17 50  1  0  0  0
 18 51  1  0  0  0
 18 52  1  0  0  0
 18 53  1  0  0  0
 19 20  1  0  0  0
 19 28  1  0  0  0
 19 54  1  0  0  0
 20 21  1  0  0  0
 20 55  1  0  0  0
 20 56  1  0  0  0
 21 22  1  0  0  0
 21 57  1  0  0  0
 21 58  1  0  0  0
 22 23  2  0  0  0
 22 27  1  0  0  0
 23 24  1  0  0  0
 23 59  1  0  0  0
 24 25  2  0  0  0
 24 60  1  0  0  0
 25 26  1  0  0  0
 25 61  1  0  0  0
 26 27  2  0  0  0
 26 62  1  0  0  0
 27 63  1  0  0  0
 28 29  2  0  0  0
 28 33  1  0  0  0
 29 30  1  0  0  0
 29 64  1  0  0  0
 30 31  2  0  0  0
 30 65  1  0  0  0
 31 32  1  0  0  0
 31 66  1  0  0  0
 32 33  2  0  0  0
 32 67  1  0  0  0
 33 68  1  0  0  0
M  END
$$$$
