SBB
  CCTOOLS-0919241028

 47 49  0  0  1  0  0  0  0  0999 V2000
   -1.7740   -0.1390    3.2260 C   0  0  0  0  0
   -1.4200   -0.0410    4.5560 C   0  0  0  0  0
   -0.0980    0.1610    4.9100 C   0  0  0  0  0
    0.8770    0.2670    3.9350 C   0  0  0  0  0
    0.5370    0.1660    2.6020 C   0  0  0  0  0
   -0.7950   -0.0330    2.2370 C   0  0  0  0  0
   -1.1660   -0.1370    0.8100 C   0  0  0  0  0
   -2.3270   -0.3160    0.4960 O   0  0  0  0  0
   -0.2180   -0.0350   -0.1420 N   0  0  0  0  0
   -0.5870   -0.1380   -1.5560 C   0  0  0  0  0
    0.6650    0.0110   -2.4210 C   0  0  0  0  0
    1.6620   -1.0950   -2.0720 C   0  0  0  0  0
    2.9140   -0.9450   -2.9370 C   0  0  0  0  0
    0.3440    0.2860    6.6110 S   0  0  0  0  0
    0.6940   -1.2410    7.1450 N   0  0  0  0  0
    1.5750    0.9960    6.6380 O   0  0  0  0  0
   -0.8420    0.6710    7.2920 O   0  0  0  0  0
    0.3030    1.7500   -7.2180 C   0  0  0  0  0
   -0.2130    1.1040   -8.2750 C   0  0  0  0  0
    0.1850    0.8520   -6.0670 C   0  0  0  0  0
   -0.6520   -0.1340   -7.8960 N   0  0  0  0  0
   -0.4230   -0.3200   -6.5510 C   0  0  0  0  0
    0.5320    0.9520   -4.7190 C   0  0  0  0  0
   -0.6690   -1.3710   -5.6740 C   0  0  0  0  0
    0.2860   -0.0950   -3.8760 C   0  0  0  0  0
   -0.3140   -1.2530   -4.3480 C   0  0  0  0  0
   -2.8060   -0.2970    2.9510 H   0  0  0  0  0
   -2.1770   -0.1230    5.3220 H   0  0  0  0  0
    1.9070    0.4260    4.2180 H   0  0  0  0  0
    1.3000    0.2480    1.8410 H   0  0  0  0  0
    0.7070    0.1070    0.1080 H   0  0  0  0  0
   -1.2970    0.6490   -1.8050 H   0  0  0  0  0
   -1.0430   -1.1100   -1.7420 H   0  0  0  0  0
    1.1210    0.9830   -2.2350 H   0  0  0  0  0
    1.2060   -2.0670   -2.2580 H   0  0  0  0  0
    1.9360   -1.0180   -1.0190 H   0  0  0  0  0
    3.6250   -1.7330   -2.6880 H   0  0  0  0  0
    2.6400   -1.0220   -3.9890 H   0  0  0  0  0
    3.3710    0.0260   -2.7510 H   0  0  0  0  0
    0.9620   -1.3830    8.0670 H   0  0  0  0  0
    0.6310   -1.9930    6.5370 H   0  0  0  0  0
    0.7260    2.7440   -7.2170 H   0  0  0  0  0
   -0.2720    1.5030   -9.2770 H   0  0  0  0  0
   -1.0640   -0.7840   -8.4860 H   0  0  0  0  0
    0.9950    1.8520   -4.3440 H   0  0  0  0  0
   -1.1350   -2.2770   -6.0320 H   0  0  0  0  0
   -0.5060   -2.0710   -3.6690 H   0  0  0  0  0
  1  2  2  0  0  0
  1  6  1  0  0  0
  1 27  1  0  0  0
  2  3  1  0  0  0
  2 28  1  0  0  0
  3  4  2  0  0  0
  3 14  1  0  0  0
  4  5  1  0  0  0
  4 29  1  0  0  0
  5  6  2  0  0  0
  5 30  1  0  0  0
  6  7  1  0  0  0
  7  8  2  0  0  0
  7  9  1  0  0  0
  9 10  1  0  0  0
  9 31  1  0  0  0
 10 11  1  0  0  0
 10 32  1  0  0  0
 10 33  1  0  0  0
 11 12  1  0  0  0
 11 25  1  0  0  0
 11 34  1  0  0  0
 12 13  1  0  0  0
 12 35  1  0  0  0
 12 36  1  0  0  0
 13 37  1  0  0  0
 13 38  1  0  0  0
 13 39  1  0  0  0
 14 15  1  0  0  0
 14 16  2  0  0  0
 14 17  2  0  0  0
 15 40  1  0  0  0
 15 41  1  0  0  0
 18 19  2  0  0  0
 18 20  1  0  0  0
 18 42  1  0  0  0
 19 21  1  0  0  0
 19 43  1  0  0  0
 20 22  2  0  0  0
 20 23  1  0  0  0
 21 22  1  0  0  0
 21 44  1  0  0  0
 22 24  1  0  0  0
 23 25  2  0  0  0
 23 45  1  0  0  0
 24 26  2  0  0  0
 24 46  1  0  0  0
 25 26  1  0  0  0
 26 47  1  0  0  0
M  END
$$$$
