SBG
  CCTOOLS-1004241129

 21 20  0  0  1  0  0  0  0  0999 V2000
    1.7710    1.8470    0.2850 N   0  0  0  0  0
    1.7200    0.4010    0.5410 C   0  0  0  0  0
    0.5010   -0.1990   -0.1610 C   0  0  0  0  0
   -0.6920    0.3300    0.4220 O   0  0  0  0  0
    2.9740   -0.2470    0.0120 C   0  0  0  0  0
    3.6420    0.3190   -0.8210 O   0  0  0  0  0
   -2.2870    0.1610   -1.5270 O   0  0  0  0  0
   -2.1680   -0.0840   -0.0720 P   0  0  0  0  0
   -2.4170   -1.6450    0.2320 O   0  0  0  0  0
   -3.4080    0.9140    0.8160 C   0  0  0  0  0
    3.3480   -1.4540    0.4650 O   0  0  0  0  0
    1.8410    2.0360   -0.7030 H   0  0  0  0  0
    0.9720    2.3130    0.6880 H   0  0  0  0  0
    1.6460    0.2240    1.6140 H   0  0  0  0  0
    0.5300    0.0540   -1.2200 H   0  0  0  0  0
    0.5120   -1.2830   -0.0450 H   0  0  0  0  0
    4.1600   -1.8290    0.0960 H   0  0  0  0  0
   -3.2880   -1.9640   -0.0410 H   0  0  0  0  0
   -3.2390    1.9710    0.6100 H   0  0  0  0  0
   -4.4070    0.6340    0.4810 H   0  0  0  0  0
   -3.3200    0.7340    1.8870 H   0  0  0  0  0
  1  2  1  0  0  0
  1 12  1  0  0  0
  1 13  1  0  0  0
  2  3  1  0  0  0
  2  5  1  0  0  0
  2 14  1  0  0  0
  3  4  1  0  0  0
  3 15  1  0  0  0
  3 16  1  0  0  0
  4  8  1  0  0  0
  5  6  2  0  0  0
  5 11  1  0  0  0
  7  8  2  0  0  0
  8  9  1  0  0  0
  8 10  1  0  0  0
  9 18  1  0  0  0
 10 19  1  0  0  0
 10 20  1  0  0  0
 10 21  1  0  0  0
 11 17  1  0  0  0
M  END
$$$$
