SBR
  CCTOOLS-0919241028

 47 49  0  0  1  0  0  0  0  0999 V2000
    1.5400    0.0940   -3.7660 C   0  0  0  0  0
    0.8290    0.2330   -2.4190 C   0  0  0  0  0
    1.7560   -0.2470   -1.3010 C   0  0  0  0  0
    1.0750   -0.1140   -0.0100 N   0  0  0  0  0
    1.7040   -0.4800    1.1230 C   0  0  0  0  0
    2.8360   -0.9200    1.0760 O   0  0  0  0  0
    1.0170   -0.3460    2.4250 C   0  0  0  0  0
    1.6650   -0.7240    3.6020 C   0  0  0  0  0
    1.0180   -0.5950    4.8140 C   0  0  0  0  0
   -0.2700   -0.0940    4.8640 C   0  0  0  0  0
   -0.9180    0.2810    3.7010 C   0  0  0  0  0
   -0.2800    0.1640    2.4840 C   0  0  0  0  0
   -1.0890    0.0640    6.4160 S   0  0  0  0  0
   -2.4790    0.0740    6.1200 O   0  0  0  0  0
   -0.4410   -0.8480    7.2900 O   0  0  0  0  0
   -0.7440    1.5730    7.0060 N   0  0  0  0  0
    0.6530    0.5550   -4.8370 N   0  0  0  0  0
    0.5850    1.8390   -5.3030 C   0  0  0  0  0
   -0.3270    1.9220   -6.2840 C   0  0  0  0  0
   -0.2320   -0.2410   -5.5270 C   0  0  0  0  0
   -0.5650   -1.5890   -5.4550 C   0  0  0  0  0
   -1.5230   -2.1040   -6.3010 C   0  0  0  0  0
   -2.1650   -1.2890   -7.2230 C   0  0  0  0  0
   -1.8560    0.0380   -7.3080 C   0  0  0  0  0
   -0.8890    0.5810   -6.4610 C   0  0  0  0  0
    0.4650    1.7000   -2.1830 C   0  0  0  0  0
    2.4480    0.6980   -3.7620 H   0  0  0  0  0
    1.8000   -0.9500   -3.9340 H   0  0  0  0  0
   -0.0780   -0.3700   -2.4230 H   0  0  0  0  0
    2.0160   -1.2930   -1.4690 H   0  0  0  0  0
    2.6640    0.3550   -1.2960 H   0  0  0  0  0
    0.1720    0.2360    0.0260 H   0  0  0  0  0
    2.6700   -1.1160    3.5650 H   0  0  0  0  0
    1.5180   -0.8870    5.7260 H   0  0  0  0  0
   -1.9240    0.6720    3.7470 H   0  0  0  0  0
   -0.7870    0.4580    1.5770 H   0  0  0  0  0
   -1.1070    1.8550    7.8600 H   0  0  0  0  0
   -0.1790    2.1750    6.4970 H   0  0  0  0  0
    1.1770    2.6650   -4.9360 H   0  0  0  0  0
   -0.5960    2.8100   -6.8380 H   0  0  0  0  0
   -0.0720   -2.2310   -4.7400 H   0  0  0  0  0
   -1.7780   -3.1520   -6.2450 H   0  0  0  0  0
   -2.9130   -1.7090   -7.8790 H   0  0  0  0  0
   -2.3600    0.6660   -8.0280 H   0  0  0  0  0
    1.3720    2.3040   -2.1790 H   0  0  0  0  0
   -0.1950    2.0430   -2.9800 H   0  0  0  0  0
   -0.0410    1.7990   -1.2230 H   0  0  0  0  0
  1  2  1  0  0  0
  1 17  1  0  0  0
  1 27  1  0  0  0
  1 28  1  0  0  0
  2  3  1  0  0  0
  2 26  1  0  0  0
  2 29  1  0  0  0
  3  4  1  0  0  0
  3 30  1  0  0  0
  3 31  1  0  0  0
  4  5  1  0  0  0
  4 32  1  0  0  0
  5  6  2  0  0  0
  5  7  1  0  0  0
  7  8  2  0  0  0
  7 12  1  0  0  0
  8  9  1  0  0  0
  8 33  1  0  0  0
  9 10  2  0  0  0
  9 34  1  0  0  0
 10 11  1  0  0  0
 10 13  1  0  0  0
 11 12  2  0  0  0
 11 35  1  0  0  0
 12 36  1  0  0  0
 13 14  2  0  0  0
 13 15  2  0  0  0
 13 16  1  0  0  0
 16 37  1  0  0  0
 16 38  1  0  0  0
 17 18  1  0  0  0
 17 20  1  0  0  0
 18 19  2  0  0  0
 18 39  1  0  0  0
 19 25  1  0  0  0
 19 40  1  0  0  0
 20 21  2  0  0  0
 20 25  1  0  0  0
 21 22  1  0  0  0
 21 41  1  0  0  0
 22 23  2  0  0  0
 22 42  1  0  0  0
 23 24  1  0  0  0
 23 43  1  0  0  0
 24 25  2  0  0  0
 24 44  1  0  0  0
 26 45  1  0  0  0
 26 46  1  0  0  0
 26 47  1  0  0  0
M  END
$$$$
