SBS
  CCTOOLS-0919241028

 47 49  0  0  1  0  0  0  0  0999 V2000
   -1.5850    0.2580    3.7490 C   0  0  0  0  0
   -0.8660    0.3680    2.4030 C   0  0  0  0  0
   -1.8010   -0.1000    1.2860 C   0  0  0  0  0
   -1.1120    0.0050   -0.0020 N   0  0  0  0  0
   -1.7460   -0.3540   -1.1360 C   0  0  0  0  0
   -2.8880   -0.7670   -1.0890 O   0  0  0  0  0
   -1.0510   -0.2480   -2.4370 C   0  0  0  0  0
   -1.7040   -0.6200   -3.6130 C   0  0  0  0  0
   -1.0500   -0.5180   -4.8230 C   0  0  0  0  0
    0.2490   -0.0480   -4.8730 C   0  0  0  0  0
    0.9020    0.3220   -3.7110 C   0  0  0  0  0
    0.2580    0.2300   -2.4950 C   0  0  0  0  0
    1.0770    0.0780   -6.4230 S   0  0  0  0  0
    2.4660    0.0570   -6.1220 O   0  0  0  0  0
    0.4110   -0.8270   -7.2920 O   0  0  0  0  0
    0.7700    1.5890   -7.0270 N   0  0  0  0  0
   -0.6900    0.7060    4.8190 N   0  0  0  0  0
   -0.5930    1.9930    5.2740 C   0  0  0  0  0
    0.3170    2.0620    6.2580 C   0  0  0  0  0
    0.1730   -0.1040    5.5190 C   0  0  0  0  0
    0.4740   -1.4610    5.4590 C   0  0  0  0  0
    1.4160   -1.9910    6.3130 C   0  0  0  0  0
    2.0740   -1.1840    7.2310 C   0  0  0  0  0
    1.7980    0.1510    7.3040 C   0  0  0  0  0
    0.8460    0.7100    6.4480 C   0  0  0  0  0
    0.3860   -0.5080    2.4210 C   0  0  0  0  0
   -2.4780    0.8830    3.7360 H   0  0  0  0  0
   -1.8700   -0.7790    3.9250 H   0  0  0  0  0
   -0.5810    1.4050    2.2270 H   0  0  0  0  0
   -2.0860   -1.1370    1.4620 H   0  0  0  0  0
   -2.6930    0.5250    1.2730 H   0  0  0  0  0
   -0.2000    0.3340   -0.0400 H   0  0  0  0  0
   -2.7190   -0.9880   -3.5750 H   0  0  0  0  0
   -1.5540   -0.8050   -5.7340 H   0  0  0  0  0
    1.9170    0.6880   -3.7570 H   0  0  0  0  0
    0.7690    0.5200   -1.5880 H   0  0  0  0  0
    1.1430    1.8540   -7.8820 H   0  0  0  0  0
    0.2180    2.2080   -6.5250 H   0  0  0  0  0
   -1.1640    2.8290    4.8980 H   0  0  0  0  0
    0.6050    2.9480    6.8050 H   0  0  0  0  0
   -0.0320   -2.0970    4.7480 H   0  0  0  0  0
    1.6460   -3.0450    6.2670 H   0  0  0  0  0
    2.8100   -1.6160    7.8930 H   0  0  0  0  0
    2.3140    0.7730    8.0200 H   0  0  0  0  0
    0.1010   -1.5460    2.5970 H   0  0  0  0  0
    0.8990   -0.4300    1.4620 H   0  0  0  0  0
    1.0520   -0.1750    3.2170 H   0  0  0  0  0
  1  2  1  0  0  0
  1 17  1  0  0  0
  1 27  1  0  0  0
  1 28  1  0  0  0
  2  3  1  0  0  0
  2 26  1  0  0  0
  2 29  1  0  0  0
  3  4  1  0  0  0
  3 30  1  0  0  0
  3 31  1  0  0  0
  4  5  1  0  0  0
  4 32  1  0  0  0
  5  6  2  0  0  0
  5  7  1  0  0  0
  7  8  2  0  0  0
  7 12  1  0  0  0
  8  9  1  0  0  0
  8 33  1  0  0  0
  9 10  2  0  0  0
  9 34  1  0  0  0
 10 11  1  0  0  0
 10 13  1  0  0  0
 11 12  2  0  0  0
 11 35  1  0  0  0
 12 36  1  0  0  0
 13 14  2  0  0  0
 13 15  2  0  0  0
 13 16  1  0  0  0
 16 37  1  0  0  0
 16 38  1  0  0  0
 17 18  1  0  0  0
 17 20  1  0  0  0
 18 19  2  0  0  0
 18 39  1  0  0  0
 19 25  1  0  0  0
 19 40  1  0  0  0
 20 21  2  0  0  0
 20 25  1  0  0  0
 21 22  1  0  0  0
 21 41  1  0  0  0
 22 23  2  0  0  0
 22 42  1  0  0  0
 23 24  1  0  0  0
 23 43  1  0  0  0
 24 25  2  0  0  0
 24 44  1  0  0  0
 26 45  1  0  0  0
 26 46  1  0  0  0
 26 47  1  0  0  0
M  END
$$$$
