SBX
  CCTOOLS-0919241028

 74 76  0  0  1  0  0  0  0  0999 V2000
    0.6230    0.1080    0.0030 C   0  0  0  0  0
    1.6950    0.9780    0.6080 C   0  0  0  0  0
    3.0710    0.4410    0.2170 C   0  0  0  0  0
    4.1540    1.2440    0.9420 C   0  0  0  0  0
    3.9830    1.0850    2.4540 C   0  0  0  0  0
    2.6150    1.6340    2.8700 C   0  0  0  0  0
    1.5760    0.9690    2.0720 N   0  0  0  0  0
    0.2380   -0.8730    0.5930 O   0  0  0  0  0
    0.0970    0.4240   -1.1890 O   0  0  0  0  0
    0.5360    0.3560    2.6720 C   0  0  0  0  0
   -0.5570    0.3650    2.1480 O   0  0  0  0  0
    0.7300   -0.3300    3.9810 C   0  0  0  0  0
    1.8390   -0.4360    4.4490 O   0  0  0  0  0
   -0.4560   -0.8930    4.7200 C   0  0  0  0  0
    0.0140   -1.5410    6.0230 C   0  0  0  0  0
   -1.1900   -2.1120    6.7730 C   0  0  0  0  0
   -1.1470   -1.9440    3.8490 C   0  0  0  0  0
   -1.4400    0.2330    5.0370 C   0  0  0  0  0
   -0.9350   -0.4130   -1.7720 C   0  0  0  0  0
   -0.8450   -0.3470   -3.2980 C   0  0  0  0  0
    0.5290   -0.8440   -3.7490 C   0  0  0  0  0
    0.6170   -0.7790   -5.2520 C   0  0  0  0  0
    1.0850    0.3660   -5.8680 C   0  0  0  0  0
    1.1670    0.4260   -7.2470 C   0  0  0  0  0
    0.7800   -0.6600   -8.0100 C   0  0  0  0  0
    0.3130   -1.8060   -7.3940 C   0  0  0  0  0
    0.2360   -1.8670   -6.0150 C   0  0  0  0  0
   -2.3100    0.0830   -1.3200 C   0  0  0  0  0
   -2.4000    0.0170    0.2050 C   0  0  0  0  0
   -3.7750    0.5140    0.6570 C   0  0  0  0  0
   -3.9720    1.9600    0.1960 C   0  0  0  0  0
   -3.8810    2.0250   -1.3290 C   0  0  0  0  0
   -2.5070    1.5290   -1.7810 C   0  0  0  0  0
    1.5850    2.0000    0.2440 H   0  0  0  0  0
    3.2080    0.5360   -0.8590 H   0  0  0  0  0
    3.1440   -0.6070    0.5030 H   0  0  0  0  0
    4.0650    2.2970    0.6750 H   0  0  0  0  0
    5.1370    0.8770    0.6470 H   0  0  0  0  0
    4.7690    1.6380    2.9690 H   0  0  0  0  0
    4.0470    0.0300    2.7190 H   0  0  0  0  0
    2.5820    2.7090    2.6890 H   0  0  0  0  0
    2.4470    1.4350    3.9280 H   0  0  0  0  0
    0.5070   -0.7920    6.6440 H   0  0  0  0  0
    0.7160   -2.3440    5.7970 H   0  0  0  0  0
   -0.8540   -2.5740    7.7020 H   0  0  0  0  0
   -1.8910   -1.3090    6.9990 H   0  0  0  0  0
   -1.6820   -2.8610    6.1530 H   0  0  0  0  0
   -0.4460   -2.7470    3.6230 H   0  0  0  0  0
   -2.0050   -2.3510    4.3830 H   0  0  0  0  0
   -1.4830   -1.4830    2.9200 H   0  0  0  0  0
   -0.9480    0.9820    5.6570 H   0  0  0  0  0
   -1.7760    0.6940    4.1080 H   0  0  0  0  0
   -2.2990   -0.1730    5.5710 H   0  0  0  0  0
   -0.7950   -1.4430   -1.4440 H   0  0  0  0  0
   -1.6210   -0.9760   -3.7350 H   0  0  0  0  0
   -0.9850    0.6820   -3.6260 H   0  0  0  0  0
    1.3040   -0.2150   -3.3120 H   0  0  0  0  0
    0.6690   -1.8740   -3.4210 H   0  0  0  0  0
    1.3870    1.2150   -5.2720 H   0  0  0  0  0
    1.5320    1.3210   -7.7280 H   0  0  0  0  0
    0.8430   -0.6130   -9.0870 H   0  0  0  0  0
    0.0110   -2.6540   -7.9900 H   0  0  0  0  0
   -0.1280   -2.7620   -5.5340 H   0  0  0  0  0
   -3.0860   -0.5450   -1.7570 H   0  0  0  0  0
   -2.2600   -1.0120    0.5330 H   0  0  0  0  0
   -1.6250    0.6460    0.6420 H   0  0  0  0  0
   -4.5500   -0.1140    0.2190 H   0  0  0  0  0
   -3.8390    0.4670    1.7440 H   0  0  0  0  0
   -4.9510    2.3130    0.5180 H   0  0  0  0  0
   -3.1960    2.5890    0.6330 H   0  0  0  0  0
   -4.6570    1.3960   -1.7660 H   0  0  0  0  0
   -4.0210    3.0550   -1.6570 H   0  0  0  0  0
   -1.7310    2.1580   -1.3430 H   0  0  0  0  0
   -2.4420    1.5760   -2.8680 H   0  0  0  0  0
  1  2  1  0  0  0
  1  8  2  0  0  0
  1  9  1  0  0  0
  2  3  1  0  0  0
  2  7  1  0  0  0
  2 34  1  0  0  0
  3  4  1  0  0  0
  3 35  1  0  0  0
  3 36  1  0  0  0
  4  5  1  0  0  0
  4 37  1  0  0  0
  4 38  1  0  0  0
  5  6  1  0  0  0
  5 39  1  0  0  0
  5 40  1  0  0  0
  6  7  1  0  0  0
  6 41  1  0  0  0
  6 42  1  0  0  0
  7 10  1  0  0  0
  9 19  1  0  0  0
 10 11  2  0  0  0
 10 12  1  0  0  0
 12 13  2  0  0  0
 12 14  1  0  0  0
 14 15  1  0  0  0
 14 17  1  0  0  0
 14 18  1  0  0  0
 15 16  1  0  0  0
 15 43  1  0  0  0
 15 44  1  0  0  0
 16 45  1  0  0  0
 16 46  1  0  0  0
 16 47  1  0  0  0
 17 48  1  0  0  0
 17 49  1  0  0  0
 17 50  1  0  0  0
 18 51  1  0  0  0
 18 52  1  0  0  0
 18 53  1  0  0  0
 19 20  1  0  0  0
 19 28  1  0  0  0
 19 54  1  0  0  0
 20 21  1  0  0  0
 20 55  1  0  0  0
 20 56  1  0  0  0
 21 22  1  0  0  0
 21 57  1  0  0  0
 21 58  1  0  0  0
 22 23  2  0  0  0
 22 27  1  0  0  0
 23 24  1  0  0  0
 23 59  1  0  0  0
 24 25  2  0  0  0
 24 60  1  0  0  0
 25 26  1  0  0  0
 25 61  1  0  0  0
 26 27  2  0  0  0
 26 62  1  0  0  0
 27 63  1  0  0  0
 28 29  1  0  0  0
 28 33  1  0  0  0
 28 64  1  0  0  0
 29 30  1  0  0  0
 29 65  1  0  0  0
 29 66  1  0  0  0
 30 31  1  0  0  0
 30 67  1  0  0  0
 30 68  1  0  0  0
 31 32  1  0  0  0
 31 69  1  0  0  0
 31 70  1  0  0  0
 32 33  1  0  0  0
 32 71  1  0  0  0
 32 72  1  0  0  0
 33 73  1  0  0  0
 33 74  1  0  0  0
M  END
$$$$
