SCH
  CCTOOLS-1004241129

 18 17  0  0  1  0  0  0  0  0999 V2000
    0.4620    1.0300    0.9710 N   0  0  0  0  0
    1.1400   -0.1860    0.5020 C   0  0  0  0  0
    0.2830   -0.8690   -0.5650 C   0  0  0  0  0
   -1.3270   -1.3100    0.1440 S   0  0  0  0  0
   -2.2300    0.5120    0.4060 S   0  0  0  0  0
   -2.9690    0.8380   -1.2180 C   0  0  0  0  0
    2.4780    0.1810   -0.0870 C   0  0  0  0  0
    2.6890    1.3140   -0.4480 O   0  0  0  0  0
    3.4350   -0.7520   -0.2110 O   0  0  0  0  0
    0.9770    1.4650    1.7210 H   0  0  0  0  0
    0.3150    1.6780    0.2110 H   0  0  0  0  0
    1.2870   -0.8660    1.3410 H   0  0  0  0  0
    0.1360   -0.1890   -1.4040 H   0  0  0  0  0
    0.7860   -1.7710   -0.9120 H   0  0  0  0  0
   -2.1860    0.8640   -1.9750 H   0  0  0  0  0
   -3.6810    0.0490   -1.4580 H   0  0  0  0  0
   -3.4850    1.7980   -1.1960 H   0  0  0  0  0
    4.2770   -0.4700   -0.5940 H   0  0  0  0  0
  1  2  1  0  0  0
  1 10  1  0  0  0
  1 11  1  0  0  0
  2  3  1  0  0  0
  2  7  1  0  0  0
  2 12  1  0  0  0
  3  4  1  0  0  0
  3 13  1  0  0  0
  3 14  1  0  0  0
  4  5  1  0  0  0
  5  6  1  0  0  0
  6 15  1  0  0  0
  6 16  1  0  0  0
  6 17  1  0  0  0
  7  8  2  0  0  0
  7  9  1  0  0  0
  9 18  1  0  0  0
M  END
$$$$
