SCY
  CCTOOLS-1004241129

 19 18  0  0  1  0  0  0  0  0999 V2000
   -1.7900   -0.3660   -1.3760 N   0  0  0  0  0
   -0.5190    0.3700   -1.3510 C   0  0  0  0  0
    0.2670   -0.0120   -0.0960 C   0  0  0  0  0
   -0.7010    0.4060    1.3740 S   0  0  0  0  0
    0.3780   -0.1100    2.5980 C   0  0  0  0  0
    1.4490   -0.5950    2.2970 O   0  0  0  0  0
   -0.0000    0.0380    4.0490 C   0  0  0  0  0
    0.2870    0.0210   -2.5760 C   0  0  0  0  0
    0.1740   -1.0690   -3.0830 O   0  0  0  0  0
    1.1300    0.9220   -3.1030 O   0  0  0  0  0
   -2.2470   -0.1840   -0.4950 H   0  0  0  0  0
   -1.5560   -1.3480   -1.3840 H   0  0  0  0  0
   -0.7200    1.4410   -1.3410 H   0  0  0  0  0
    1.2100    0.5340   -0.0780 H   0  0  0  0  0
    0.4680   -1.0830   -0.1060 H   0  0  0  0  0
    0.8050   -0.3410    4.6760 H   0  0  0  0  0
   -0.1690    1.0910    4.2740 H   0  0  0  0  0
   -0.9110   -0.5260    4.2460 H   0  0  0  0  0
    1.6480    0.6990   -3.8880 H   0  0  0  0  0
  1  2  1  0  0  0
  1 11  1  0  0  0
  1 12  1  0  0  0
  2  3  1  0  0  0
  2  8  1  0  0  0
  2 13  1  0  0  0
  3  4  1  0  0  0
  3 14  1  0  0  0
  3 15  1  0  0  0
  4  5  1  0  0  0
  5  6  2  0  0  0
  5  7  1  0  0  0
  7 16  1  0  0  0
  7 17  1  0  0  0
  7 18  1  0  0  0
  8  9  2  0  0  0
  8 10  1  0  0  0
 10 19  1  0  0  0
M  END
$$$$
