SDS
  CCTOOLS-0919241029

 43 42  0  0  0  0  0  0  0  0999 V2000
    0.1010    0.0750   -5.9200 S   0  0  0  0  0
   -0.7490    0.5270   -6.9640 O   0  0  0  0  0
   -0.7780   -0.0170   -4.6810 O   0  0  0  0  0
    0.5040   -1.3410   -6.2990 O   0  0  0  0  0
    1.2960    0.7170   -5.4980 O   0  0  0  0  0
    0.0920    0.0600   -3.5500 C   0  0  0  0  0
   -0.2010   -0.0520   10.2150 C   0  0  0  0  0
    0.6240    0.0350    8.9300 C   0  0  0  0  0
   -0.3070   -0.0470    7.7190 C   0  0  0  0  0
    0.5170    0.0400    6.4340 C   0  0  0  0  0
   -0.4130   -0.0420    5.2230 C   0  0  0  0  0
    0.4110    0.0450    3.9370 C   0  0  0  0  0
   -0.5200   -0.0370    2.7270 C   0  0  0  0  0
    0.3040    0.0500    1.4410 C   0  0  0  0  0
   -0.6260   -0.0320    0.2300 C   0  0  0  0  0
    0.1980    0.0550   -1.0540 C   0  0  0  0  0
   -0.7330   -0.0270   -2.2650 C   0  0  0  0  0
    1.0620   -1.2720   -7.0860 H   0  0  0  0  0
    0.6310    1.0070   -3.5710 H   0  0  0  0  0
    0.8040   -0.7640   -3.5820 H   0  0  0  0  0
    0.4620    0.0060   11.0780 H   0  0  0  0  0
   -0.9130    0.7720   10.2470 H   0  0  0  0  0
   -0.7400   -0.9990   10.2360 H   0  0  0  0  0
    1.1630    0.9820    8.9090 H   0  0  0  0  0
    1.3360   -0.7890    8.8980 H   0  0  0  0  0
   -0.8470   -0.9940    7.7400 H   0  0  0  0  0
   -1.0190    0.7770    7.7510 H   0  0  0  0  0
    1.0570    0.9870    6.4130 H   0  0  0  0  0
    1.2290   -0.7840    6.4020 H   0  0  0  0  0
   -0.9530   -0.9890    5.2440 H   0  0  0  0  0
   -1.1250    0.7820    5.2550 H   0  0  0  0  0
    0.9500    0.9920    3.9160 H   0  0  0  0  0
    1.1230   -0.7790    3.9050 H   0  0  0  0  0
   -1.0590   -0.9840    2.7480 H   0  0  0  0  0
   -1.2320    0.7870    2.7590 H   0  0  0  0  0
    0.8440    0.9970    1.4200 H   0  0  0  0  0
    1.0160   -0.7740    1.4090 H   0  0  0  0  0
   -1.1660   -0.9790    0.2520 H   0  0  0  0  0
   -1.3380    0.7920    0.2620 H   0  0  0  0  0
    0.7380    1.0020   -1.0750 H   0  0  0  0  0
    0.9100   -0.7690   -1.0860 H   0  0  0  0  0
   -1.2720   -0.9740   -2.2440 H   0  0  0  0  0
   -1.4450    0.7970   -2.2330 H   0  0  0  0  0
  1  2  2  0  0  0
  1  3  1  0  0  0
  1  4  1  0  0  0
  1  5  2  0  0  0
  3  6  1  0  0  0
  4 18  1  0  0  0
  6 17  1  0  0  0
  6 19  1  0  0  0
  6 20  1  0  0  0
  7  8  1  0  0  0
  7 21  1  0  0  0
  7 22  1  0  0  0
  7 23  1  0  0  0
  8  9  1  0  0  0
  8 24  1  0  0  0
  8 25  1  0  0  0
  9 10  1  0  0  0
  9 26  1  0  0  0
  9 27  1  0  0  0
 10 11  1  0  0  0
 10 28  1  0  0  0
 10 29  1  0  0  0
 11 12  1  0  0  0
 11 30  1  0  0  0
 11 31  1  0  0  0
 12 13  1  0  0  0
 12 32  1  0  0  0
 12 33  1  0  0  0
 13 14  1  0  0  0
 13 34  1  0  0  0
 13 35  1  0  0  0
 14 15  1  0  0  0
 14 36  1  0  0  0
 14 37  1  0  0  0
 15 16  1  0  0  0
 15 38  1  0  0  0
 15 39  1  0  0  0
 16 17  1  0  0  0
 16 40  1  0  0  0
 16 41  1  0  0  0
 17 42  1  0  0  0
 17 43  1  0  0  0
M  END
$$$$
