SGC
  CCTOOLS-0919241029

 24 24  0  0  1  0  0  0  0  0999 V2000
    1.2070    0.2780   -1.3040 C   0  0  0  0  0
    2.1980   -0.0530   -2.2780 O   0  0  0  0  0
   -0.1580   -0.2270   -1.7760 C   0  0  0  0  0
   -0.4770    0.3630   -3.0370 O   0  0  0  0  0
   -1.2190    0.1610   -0.7410 C   0  0  0  0  0
   -2.4720   -0.4300   -1.0930 O   0  0  0  0  0
   -0.7730   -0.3500    0.6330 C   0  0  0  0  0
    0.6370    0.1660    0.9230 C   0  0  0  0  0
    1.5430   -0.3300   -0.0590 O   0  0  0  0  0
    1.0770   -0.3090    2.3090 C   0  0  0  0  0
    2.3940    0.1740    2.5820 O   0  0  0  0  0
   -1.9150    0.2550    1.9060 S   0  0  0  0  0
    1.1690    1.3600   -1.1790 H   0  0  0  0  0
    3.0400    0.2850   -1.9470 H   0  0  0  0  0
   -0.1290   -1.3120   -1.8790 H   0  0  0  0  0
    0.2180    0.0990   -3.6540 H   0  0  0  0  0
   -1.3230    1.2450   -0.7130 H   0  0  0  0  0
   -2.7050   -0.0900   -1.9680 H   0  0  0  0  0
   -0.7720   -1.4400    0.6330 H   0  0  0  0  0
    0.6360    1.2550    0.8980 H   0  0  0  0  0
    1.0780   -1.3990    2.3350 H   0  0  0  0  0
    0.3860    0.0710    3.0610 H   0  0  0  0  0
    2.6320   -0.1470    3.4630 H   0  0  0  0  0
   -3.0640   -0.2890    1.4670 H   0  0  0  0  0
  1  2  1  0  0  0
  1  3  1  0  0  0
  1  9  1  0  0  0
  1 13  1  0  0  0
  2 14  1  0  0  0
  3  4  1  0  0  0
  3  5  1  0  0  0
  3 15  1  0  0  0
  4 16  1  0  0  0
  5  6  1  0  0  0
  5  7  1  0  0  0
  5 17  1  0  0  0
  6 18  1  0  0  0
  7  8  1  0  0  0
  7 12  1  0  0  0
  7 19  1  0  0  0
  8  9  1  0  0  0
  8 10  1  0  0  0
  8 20  1  0  0  0
 10 11  1  0  0  0
 10 21  1  0  0  0
 10 22  1  0  0  0
 11 23  1  0  0  0
 12 24  1  0  0  0
M  END
$$$$
