SIA
  CCTOOLS-1004241120

 40 40  0  0  1  0  0  0  0  0999 V2000
   -2.5020   -0.8320    0.1740 C   0  0  0  0  0
   -2.1710    0.6280    0.3420 C   0  0  0  0  0
   -1.7890    0.8980    1.8000 C   0  0  0  0  0
   -0.5860    0.0230    2.1710 C   0  0  0  0  0
    0.5290    0.2640    1.1480 C   0  0  0  0  0
   -0.0260    0.0430   -0.2590 C   0  0  0  0  0
    1.0880    0.2510   -1.2860 C   0  0  0  0  0
    0.5350    0.0210   -2.6940 C   0  0  0  0  0
    1.6500    0.2290   -3.7210 C   0  0  0  0  0
    2.6320   -0.3290    2.2260 C   0  0  0  0  0
    3.7630   -1.2920    2.4780 C   0  0  0  0  0
    1.6290   -0.6710    1.3940 N   0  0  0  0  0
   -2.1910   -1.4080   -0.8410 O   0  0  0  0  0
   -3.1410   -1.4930    1.1520 O   0  0  0  0  0
   -3.3120    1.4160   -0.0030 O   0  0  0  0  0
   -0.1230    0.3700    3.4780 O   0  0  0  0  0
   -1.0820    0.9680   -0.5130 O   0  0  0  0  0
    1.5880    1.5860   -1.1830 O   0  0  0  0  0
    0.0350   -1.3130   -2.7970 O   0  0  0  0  0
    1.1330    0.0140   -5.0350 O   0  0  0  0  0
    2.6240    0.7530    2.7720 O   0  0  0  0  0
   -2.6310    0.6550    2.4480 H   0  0  0  0  0
   -1.5260    1.9490    1.9190 H   0  0  0  0  0
   -0.8780   -1.0260    2.1530 H   0  0  0  0  0
    0.8930    1.2870    1.2400 H   0  0  0  0  0
   -0.4080   -0.9730   -0.3410 H   0  0  0  0  0
    1.8960   -0.4540   -1.0930 H   0  0  0  0  0
   -0.2720    0.7280   -2.8870 H   0  0  0  0  0
    2.0310    1.2470   -3.6420 H   0  0  0  0  0
    2.4570   -0.4760   -3.5280 H   0  0  0  0  0
    4.4740   -0.8440    3.1720 H   0  0  0  0  0
    3.3680   -2.2130    2.9070 H   0  0  0  0  0
    4.2660   -1.5160    1.5370 H   0  0  0  0  0
    1.6350   -1.5380    0.9570 H   0  0  0  0  0
   -3.3530   -2.4300    1.0440 H   0  0  0  0  0
   -3.5190    1.2170   -0.9260 H   0  0  0  0  0
   -0.8540    0.2030    4.0870 H   0  0  0  0  0
    0.8440    2.1770   -1.3600 H   0  0  0  0  0
    0.7790   -1.9040   -2.6200 H   0  0  0  0  0
    1.8660    0.1550   -5.6500 H   0  0  0  0  0
  1  2  1  0  0  0
  1 13  2  0  0  0
  1 14  1  0  0  0
  2  3  1  0  0  0
  2 15  1  0  0  0
  2 17  1  0  0  0
  3  4  1  0  0  0
  3 22  1  0  0  0
  3 23  1  0  0  0
  4  5  1  0  0  0
  4 16  1  0  0  0
  4 24  1  0  0  0
  5  6  1  0  0  0
  5 12  1  0  0  0
  5 25  1  0  0  0
  6  7  1  0  0  0
  6 17  1  0  0  0
  6 26  1  0  0  0
  7  8  1  0  0  0
  7 18  1  0  0  0
  7 27  1  0  0  0
  8  9  1  0  0  0
  8 19  1  0  0  0
  8 28  1  0  0  0
  9 20  1  0  0  0
  9 29  1  0  0  0
  9 30  1  0  0  0
 10 11  1  0  0  0
 10 12  1  0  0  0
 10 21  2  0  0  0
 11 31  1  0  0  0
 11 32  1  0  0  0
 11 33  1  0  0  0
 12 34  1  0  0  0
 14 35  1  0  0  0
 15 36  1  0  0  0
 16 37  1  0  0  0
 18 38  1  0  0  0
 19 39  1  0  0  0
 20 40  1  0  0  0
M  END
$$$$
