SIG
  CCTOOLS-0919241029

 77 78  0  0  1  0  0  0  0  0999 V2000
    2.3100   -0.0700    6.0310 C   0  0  0  0  0
    1.9840   -0.4330    4.7310 C   0  0  0  0  0
    0.6580   -0.4100    4.3160 C   0  0  0  0  0
   -0.3400   -0.0070    5.2200 C   0  0  0  0  0
   -0.0010    0.3610    6.5280 C   0  0  0  0  0
    1.3220    0.3280    6.9240 C   0  0  0  0  0
    0.3180   -0.7640    3.0590 O   0  0  0  0  0
   -0.9480   -0.7490    2.6290 C   0  0  0  0  0
   -1.9780   -0.3810    3.4100 C   0  0  0  0  0
   -1.7360    0.0110    4.7540 C   0  0  0  0  0
    2.9620   -0.8170    3.8650 O   0  0  0  0  0
    3.6080   -0.0990    6.4320 O   0  0  0  0  0
   -0.9660    0.7510    7.4000 O   0  0  0  0  0
   -2.6460    0.3520    5.4900 O   0  0  0  0  0
   -0.3100    1.0590    8.6310 C   0  0  0  0  0
   -1.2320   -1.1610    1.2070 C   0  0  0  0  0
   -1.1650    0.0660    0.2970 C   0  0  0  0  0
   -1.4540   -0.3520   -1.1450 C   0  0  0  0  0
   -1.3870    0.8750   -2.0560 C   0  0  0  0  0
   -1.5190    0.4350   -3.5150 C   0  0  0  0  0
   -0.1760   -0.1080   -4.0070 C   0  0  0  0  0
    3.6280    0.3260    7.7960 C   0  0  0  0  0
   -2.8500   -0.9730   -1.2270 C   0  0  0  0  0
   -0.0470    1.5850   -1.8560 C   0  0  0  0  0
   -0.2790   -0.4530   -5.4700 C   0  0  0  0  0
    0.5140    0.1500   -6.3550 C   0  0  0  0  0
    0.4140   -0.1830   -7.7770 C   0  0  0  0  0
    1.2180    0.4270   -8.6720 C   0  0  0  0  0
   -3.3830   -0.3860    2.8630 C   0  0  0  0  0
    0.1860   -1.3640   -3.2120 C   0  0  0  0  0
   -1.9290    1.6330   -4.3740 C   0  0  0  0  0
    1.1180    0.0920  -10.0940 C   0  0  0  0  0
    1.9120    0.6960  -10.9780 C   0  0  0  0  0
    1.8090    0.3520  -12.4420 C   0  0  0  0  0
    0.1170   -0.9340  -10.5580 C   0  0  0  0  0
    1.5890    0.6120    7.9310 H   0  0  0  0  0
    3.2640   -0.0180    3.4120 H   0  0  0  0  0
   -1.0490    1.3780    9.3660 H   0  0  0  0  0
    0.2080    0.1740    8.9980 H   0  0  0  0  0
    0.4090    1.8610    8.4680 H   0  0  0  0  0
   -0.4900   -1.8930    0.8860 H   0  0  0  0  0
   -2.2270   -1.6030    1.1490 H   0  0  0  0  0
   -1.9070    0.7970    0.6180 H   0  0  0  0  0
   -0.1710    0.5070    0.3550 H   0  0  0  0  0
   -0.7120   -1.0840   -1.4670 H   0  0  0  0  0
   -2.2010    1.5560   -1.8070 H   0  0  0  0  0
   -2.2770   -0.3430   -3.5930 H   0  0  0  0  0
    0.5950    0.6460   -3.8650 H   0  0  0  0  0
    4.6540    0.3200    8.1640 H   0  0  0  0  0
    3.2230    1.3360    7.8670 H   0  0  0  0  0
    3.0220   -0.3500    8.3970 H   0  0  0  0  0
   -3.5960   -0.2240   -0.9600 H   0  0  0  0  0
   -3.0330   -1.3230   -2.2430 H   0  0  0  0  0
   -2.9150   -1.8130   -0.5360 H   0  0  0  0  0
    0.7640    0.8680   -1.9680 H   0  0  0  0  0
    0.0590    2.3750   -2.6000 H   0  0  0  0  0
   -0.0120    2.0210   -0.8570 H   0  0  0  0  0
   -0.9960   -1.1880   -5.8030 H   0  0  0  0  0
    1.2320    0.8860   -6.0220 H   0  0  0  0  0
   -0.3020   -0.9190   -8.1100 H   0  0  0  0  0
    1.9350    1.1620   -8.3390 H   0  0  0  0  0
   -4.0750   -0.0600    3.6390 H   0  0  0  0  0
   -3.4440    0.2920    2.0130 H   0  0  0  0  0
   -3.6440   -1.3940    2.5430 H   0  0  0  0  0
   -0.7110   -1.9580   -3.0410 H   0  0  0  0  0
    0.9100   -1.9540   -3.7750 H   0  0  0  0  0
    0.6190   -1.0760   -2.2540 H   0  0  0  0  0
   -1.1240    2.3680   -4.3800 H   0  0  0  0  0
   -2.1240    1.3000   -5.3930 H   0  0  0  0  0
   -2.8300    2.0850   -3.9600 H   0  0  0  0  0
    2.6290    1.4310  -10.6460 H   0  0  0  0  0
    2.5320    0.9420  -13.0060 H   0  0  0  0  0
    2.0180   -0.7080  -12.5810 H   0  0  0  0  0
    0.8030    0.5730  -12.7970 H   0  0  0  0  0
    0.1890   -1.0480  -11.6400 H   0  0  0  0  0
    0.3270   -1.8890  -10.0770 H   0  0  0  0  0
   -0.8880   -0.6060  -10.2930 H   0  0  0  0  0
  1  2  2  0  0  0
  1  6  1  0  0  0
  1 12  1  0  0  0
  2  3  1  0  0  0
  2 11  1  0  0  0
  3  4  2  0  0  0
  3  7  1  0  0  0
  4  5  1  0  0  0
  4 10  1  0  0  0
  5  6  2  0  0  0
  5 13  1  0  0  0
  6 36  1  0  0  0
  7  8  1  0  0  0
  8  9  2  0  0  0
  8 16  1  0  0  0
  9 10  1  0  0  0
  9 29  1  0  0  0
 10 14  2  0  0  0
 11 37  1  0  0  0
 12 22  1  0  0  0
 13 15  1  0  0  0
 15 38  1  0  0  0
 15 39  1  0  0  0
 15 40  1  0  0  0
 16 17  1  0  0  0
 16 41  1  0  0  0
 16 42  1  0  0  0
 17 18  1  0  0  0
 17 43  1  0  0  0
 17 44  1  0  0  0
 18 19  1  0  0  0
 18 23  1  0  0  0
 18 45  1  0  0  0
 19 20  1  0  0  0
 19 24  1  0  0  0
 19 46  1  0  0  0
 20 21  1  0  0  0
 20 31  1  0  0  0
 20 47  1  0  0  0
 21 25  1  0  0  0
 21 30  1  0  0  0
 21 48  1  0  0  0
 22 49  1  0  0  0
 22 50  1  0  0  0
 22 51  1  0  0  0
 23 52  1  0  0  0
 23 53  1  0  0  0
 23 54  1  0  0  0
 24 55  1  0  0  0
 24 56  1  0  0  0
 24 57  1  0  0  0
 25 26  2  0  0  0
 25 58  1  0  0  0
 26 27  1  0  0  0
 26 59  1  0  0  0
 27 28  2  0  0  0
 27 60  1  0  0  0
 28 32  1  0  0  0
 28 61  1  0  0  0
 29 62  1  0  0  0
 29 63  1  0  0  0
 29 64  1  0  0  0
 30 65  1  0  0  0
 30 66  1  0  0  0
 30 67  1  0  0  0
 31 68  1  0  0  0
 31 69  1  0  0  0
 31 70  1  0  0  0
 32 33  2  0  0  0
 32 35  1  0  0  0
 33 34  1  0  0  0
 33 71  1  0  0  0
 34 72  1  0  0  0
 34 73  1  0  0  0
 34 74  1  0  0  0
 35 75  1  0  0  0
 35 76  1  0  0  0
 35 77  1  0  0  0
M  END
$$$$
