SIN
  CCTOOLS-1004241120

 14 13  0  0  0  0  0  0  0  0999 V2000
    1.9030   -0.0440    0.0020 C   0  0  0  0  0
    2.0380   -1.2450    0.0010 O   0  0  0  0  0
    2.9840    0.7530   -0.0020 O   0  0  0  0  0
    0.5220    0.5590    0.0020 C   0  0  0  0  0
   -0.5220   -0.5590    0.0000 C   0  0  0  0  0
   -1.9030    0.0440   -0.0000 C   0  0  0  0  0
   -2.0380    1.2450    0.0010 O   0  0  0  0  0
   -2.9840   -0.7530   -0.0020 O   0  0  0  0  0
    3.8480    0.3200   -0.0060 H   0  0  0  0  0
    0.3940    1.1740    0.8920 H   0  0  0  0  0
    0.3960    1.1760   -0.8880 H   0  0  0  0  0
   -0.3940   -1.1740   -0.8900 H   0  0  0  0  0
   -0.3960   -1.1760    0.8900 H   0  0  0  0  0
   -3.8480   -0.3200   -0.0020 H   0  0  0  0  0
  1  2  2  0  0  0
  1  3  1  0  0  0
  1  4  1  0  0  0
  3  9  1  0  0  0
  4  5  1  0  0  0
  4 10  1  0  0  0
  4 11  1  0  0  0
  5  6  1  0  0  0
  5 12  1  0  0  0
  5 13  1  0  0  0
  6  7  2  0  0  0
  6  8  1  0  0  0
  8 14  1  0  0  0
M  END
$$$$
