SMA
  CCTOOLS-0919241030

 79 80  0  0  1  0  0  0  0  0999 V2000
   -2.2830    0.5070    0.5750 C   0  0  0  0  0
   -2.6940   -0.1830    1.6530 C   0  0  0  0  0
   -1.6880   -0.7320    2.6310 C   0  0  0  0  0
   -4.0840   -0.3910    1.8650 C   0  0  0  0  0
   -5.0100    0.1740    0.8690 C   0  0  0  0  0
   -6.3960    0.0210    0.9920 C   0  0  0  0  0
   -8.3420   -0.7720    2.1020 C   0  0  0  0  0
   -7.2290    0.5680    0.0340 C   0  0  0  0  0
   -6.6940    1.2650   -1.0440 C   0  0  0  0  0
   -8.9260    1.6020   -1.7890 C   0  0  0  0  0
   -5.3200    1.4200   -1.1740 C   0  0  0  0  0
   -4.4680    0.8770   -0.2210 C   0  0  0  0  0
   -0.8030    0.7130    0.3720 C   0  0  0  0  0
   -0.2590   -0.3730   -0.5570 C   0  0  0  0  0
    1.2430   -0.1640   -0.7620 C   0  0  0  0  0
    1.8110   -1.3190   -1.5880 C   0  0  0  0  0
    3.3250   -1.1480   -1.7310 C   0  0  0  0  0
    3.9830   -1.2630   -0.3540 C   0  0  0  0  0
    5.4500   -0.9370   -0.4700 C   0  0  0  0  0
    5.9620    0.0810    0.2220 C   0  0  0  0  0
    7.3880    0.3980    0.1100 C   0  0  0  0  0
    7.9070    1.4280    0.8100 C   0  0  0  0  0
    9.3320    1.7450    0.6980 C   0  0  0  0  0
    9.8450    2.7620    1.3900 C   0  0  0  0  0
   11.3120    3.0890    1.2740 C   0  0  0  0  0
    1.4770    1.1550   -1.5010 C   0  0  0  0  0
    0.9950   -3.5640   -1.7920 C   0  0  0  0  0
    3.8760   -2.2370   -2.6530 C   0  0  0  0  0
    3.1140   -2.6820    1.3720 C   0  0  0  0  0
   10.2190    0.9220   -0.2000 C   0  0  0  0  0
   -3.1290    1.0120   -0.3290 O   0  0  0  0  0
   -4.4930   -1.0120    2.8320 O   0  0  0  0  0
   -6.9190   -0.6590    2.0450 O   0  0  0  0  0
   -7.5230    1.7970   -1.9790 O   0  0  0  0  0
   -4.8100    2.1050   -2.2340 O   0  0  0  0  0
    1.5310   -2.5570   -0.9310 O   0  0  0  0  0
    3.8290   -2.5960    0.1370 O   0  0  0  0  0
   -1.4940    0.0090    3.4060 H   0  0  0  0  0
   -2.0820   -1.6400    3.0860 H   0  0  0  0  0
   -0.7600   -0.9610    2.1070 H   0  0  0  0  0
   -8.6260   -1.3370    2.9900 H   0  0  0  0  0
   -8.7840    0.2230    2.1480 H   0  0  0  0  0
   -8.7010   -1.2890    1.2120 H   0  0  0  0  0
   -8.3000    0.4540    0.1230 H   0  0  0  0  0
   -9.1460    0.5350   -1.7760 H   0  0  0  0  0
   -9.2290    2.0470   -0.8410 H   0  0  0  0  0
   -9.4720    2.0760   -2.6040 H   0  0  0  0  0
   -0.6310    1.6930   -0.0740 H   0  0  0  0  0
   -0.2940    0.6580    1.3340 H   0  0  0  0  0
   -0.4310   -1.3530   -0.1100 H   0  0  0  0  0
   -0.7680   -0.3180   -1.5190 H   0  0  0  0  0
    1.7410   -0.1310    0.2070 H   0  0  0  0  0
    1.3510   -1.3200   -2.5760 H   0  0  0  0  0
    3.5410   -0.1680   -2.1560 H   0  0  0  0  0
    3.5080   -0.5650    0.3350 H   0  0  0  0  0
    6.0850   -1.5270   -1.1130 H   0  0  0  0  0
    5.3270    0.6710    0.8650 H   0  0  0  0  0
    8.0230   -0.1920   -0.5340 H   0  0  0  0  0
    7.2710    2.0180    1.4530 H   0  0  0  0  0
    9.2100    3.3530    2.0330 H   0  0  0  0  0
   11.5440    3.9450    1.9080 H   0  0  0  0  0
   11.9020    2.2300    1.5930 H   0  0  0  0  0
   11.5500    3.3290    0.2380 H   0  0  0  0  0
    0.9570    1.1330   -2.4580 H   0  0  0  0  0
    1.0960    1.9810   -0.9000 H   0  0  0  0  0
    2.5450    1.2920   -1.6710 H   0  0  0  0  0
    0.7400   -4.4460   -1.2050 H   0  0  0  0  0
    0.1000   -3.1830   -2.2830 H   0  0  0  0  0
    1.7370   -3.8310   -2.5450 H   0  0  0  0  0
    3.6820   -3.2160   -2.2150 H   0  0  0  0  0
    3.3900   -2.1700   -3.6260 H   0  0  0  0  0
    4.9510   -2.1010   -2.7740 H   0  0  0  0  0
    3.6210   -2.0810    2.1270 H   0  0  0  0  0
    2.1000   -2.3090    1.2310 H   0  0  0  0  0
    3.0770   -3.7210    1.6990 H   0  0  0  0  0
   10.2300    1.3570   -1.1990 H   0  0  0  0  0
   11.2320    0.9090    0.2020 H   0  0  0  0  0
    9.8370   -0.0980   -0.2530 H   0  0  0  0  0
   -4.7030    3.0530   -2.0760 H   0  0  0  0  0
  1  2  2  0  0  0
  2  4  1  0  0  0
  2  3  1  0  0  0
  3 38  1  0  0  0
  3 39  1  0  0  0
  3 40  1  0  0  0
  4 32  2  0  0  0
  5  4  1  0  0  0
  6  5  1  0  0  0
  6 33  1  0  0  0
  7 33  1  0  0  0
  7 41  1  0  0  0
  7 42  1  0  0  0
  7 43  1  0  0  0
  8  6  2  0  0  0
  8 44  1  0  0  0
  9 11  2  0  0  0
  9  8  1  0  0  0
 10 34  1  0  0  0
 10 45  1  0  0  0
 10 46  1  0  0  0
 10 47  1  0  0  0
 11 12  1  0  0  0
 12 31  1  0  0  0
 12  5  2  0  0  0
 13  1  1  0  0  0
 13 14  1  0  0  0
 13 48  1  0  0  0
 13 49  1  0  0  0
 14 50  1  0  0  0
 14 51  1  0  0  0
 15 14  1  0  0  0
 15 16  1  0  0  0
 15 52  1  0  0  0
 16 17  1  0  0  0
 16 36  1  0  0  0
 16 53  1  0  0  0
 17 18  1  0  0  0
 17 54  1  0  0  0
 18 19  1  0  0  0
 18 55  1  0  0  0
 19 20  2  0  0  0
 19 56  1  0  0  0
 20 21  1  0  0  0
 20 57  1  0  0  0
 21 22  2  0  0  0
 21 58  1  0  0  0
 22 23  1  0  0  0
 22 59  1  0  0  0
 23 30  1  0  0  0
 24 23  2  0  0  0
 24 25  1  0  0  0
 24 60  1  0  0  0
 25 61  1  0  0  0
 25 62  1  0  0  0
 25 63  1  0  0  0
 26 15  1  0  0  0
 26 64  1  0  0  0
 26 65  1  0  0  0
 26 66  1  0  0  0
 27 67  1  0  0  0
 27 68  1  0  0  0
 27 69  1  0  0  0
 28 17  1  0  0  0
 28 70  1  0  0  0
 28 71  1  0  0  0
 28 72  1  0  0  0
 29 73  1  0  0  0
 29 74  1  0  0  0
 29 75  1  0  0  0
 30 76  1  0  0  0
 30 77  1  0  0  0
 30 78  1  0  0  0
 31  1  1  0  0  0
 34  9  1  0  0  0
 35 11  1  0  0  0
 35 79  1  0  0  0
 36 27  1  0  0  0
 37 29  1  0  0  0
 37 18  1  0  0  0
M  END
$$$$
