SMM
  CCTOOLS-1004241120

 54 56  0  0  1  0  0  0  0  0999 V2000
   -2.9160    5.9020   -1.1670 N   0  0  0  0  0
   -3.9490    4.9640   -0.8040 C   0  0  0  0  0
   -3.3960    3.8490    0.0890 C   0  0  0  0  0
   -2.9140    4.3660    1.4390 C   0  0  0  0  0
   -2.3110    3.0510    2.4500 S   0  0  0  0  0
   -1.7340    3.7960    3.9440 C   0  0  0  0  0
   -0.8810    2.4280    1.6210 C   0  0  0  0  0
   -0.1990    1.3330    2.4290 C   0  0  0  0  0
   -1.1280    0.2360    2.5840 O   0  0  0  0  0
   -0.6160   -0.9100    1.8770 C   0  0  0  0  0
   -1.7130   -1.6110    1.2130 N   0  0  0  0  0
   -1.8150   -2.9570    0.9960 C   0  0  0  0  0
   -0.9370   -3.9090    1.3430 N   0  0  0  0  0
   -1.3840   -5.1250    0.9600 C   0  0  0  0  0
   -2.5320   -5.4440    0.3160 N   0  0  0  0  0
   -3.3730   -4.4310   -0.0040 C   0  0  0  0  0
   -4.5800   -4.6980   -0.6720 N   0  0  0  0  0
   -3.0230   -3.1290    0.3390 C   0  0  0  0  0
   -3.6510   -1.9230    0.1540 N   0  0  0  0  0
   -2.8410   -1.0340    0.6890 C   0  0  0  0  0
    0.4470   -0.3800    0.9260 C   0  0  0  0  0
    1.3990   -1.3700    0.5960 O   0  0  0  0  0
    1.0320    0.7610    1.7340 C   0  0  0  0  0
    1.9180    0.2380    2.7250 O   0  0  0  0  0
   -5.1080    5.6650   -0.1070 C   0  0  0  0  0
   -5.0890    6.8610    0.1690 O   0  0  0  0  0
   -6.1390    4.8170    0.1660 O   0  0  0  0  0
   -7.2680    5.4000    0.8250 C   0  0  0  0  0
   -2.4580    6.4270   -0.4420 H   0  0  0  0  0
   -2.8130    6.1640   -2.1320 H   0  0  0  0  0
   -4.3410    4.5580   -1.7430 H   0  0  0  0  0
   -2.5620    3.3470   -0.4170 H   0  0  0  0  0
   -4.1630    3.0780    0.2430 H   0  0  0  0  0
   -3.7200    4.8470    2.0000 H   0  0  0  0  0
   -2.0910    5.0780    1.3200 H   0  0  0  0  0
   -3.2360    2.1000    2.6720 H   0  0  0  0  0
   -0.6570    3.9430    3.8620 H   0  0  0  0  0
   -2.2430    4.7520    4.0710 H   0  0  0  0  0
   -1.9660    3.1260    4.7740 H   0  0  0  0  0
   -1.2110    2.0500    0.6490 H   0  0  0  0  0
   -0.2070    3.2740    1.4610 H   0  0  0  0  0
    0.0330    1.7130    3.4290 H   0  0  0  0  0
   -0.2130   -1.6250    2.6030 H   0  0  0  0  0
   -0.7350   -5.9610    1.2010 H   0  0  0  0  0
   -4.5670   -4.8890   -1.6560 H   0  0  0  0  0
   -5.4480   -4.6010   -0.1790 H   0  0  0  0  0
   -3.0130    0.0330    0.7270 H   0  0  0  0  0
   -0.0050    0.0000    0.0020 H   0  0  0  0  0
    0.9130   -2.1250    0.2190 H   0  0  0  0  0
    1.5920    1.4840    1.1360 H   0  0  0  0  0
    2.7120   -0.0550    2.2540 H   0  0  0  0  0
   -7.3910    6.4340    0.4930 H   0  0  0  0  0
   -7.1160    5.3690    1.9070 H   0  0  0  0  0
   -8.1640    4.8280    0.5680 H   0  0  0  0  0
  1  2  1  0  0  0
  1 29  1  0  0  0
  1 30  1  0  0  0
  2  3  1  0  0  0
  2 25  1  0  0  0
  2 31  1  0  0  0
  3  4  1  0  0  0
  3 32  1  0  0  0
  3 33  1  0  0  0
  4  5  1  0  0  0
  4 34  1  0  0  0
  4 35  1  0  0  0
  5  6  1  0  0  0
  5  7  1  0  0  0
  5 36  1  0  0  0
  6 37  1  0  0  0
  6 38  1  0  0  0
  6 39  1  0  0  0
  7  8  1  0  0  0
  7 40  1  0  0  0
  7 41  1  0  0  0
  8  9  1  0  0  0
  8 23  1  0  0  0
  8 42  1  0  0  0
  9 10  1  0  0  0
 10 11  1  0  0  0
 10 21  1  0  0  0
 10 43  1  0  0  0
 11 12  1  0  0  0
 11 20  1  0  0  0
 12 13  2  0  0  0
 12 18  1  0  0  0
 13 14  1  0  0  0
 14 15  2  0  0  0
 14 44  1  0  0  0
 15 16  1  0  0  0
 16 17  1  0  0  0
 16 18  2  0  0  0
 17 45  1  0  0  0
 17 46  1  0  0  0
 18 19  1  0  0  0
 19 20  2  0  0  0
 20 47  1  0  0  0
 21 22  1  0  0  0
 21 23  1  0  0  0
 21 48  1  0  0  0
 22 49  1  0  0  0
 23 24  1  0  0  0
 23 50  1  0  0  0
 24 51  1  0  0  0
 25 26  2  0  0  0
 25 27  1  0  0  0
 27 28  1  0  0  0
 28 52  1  0  0  0
 28 53  1  0  0  0
 28 54  1  0  0  0
M  END
$$$$
