SMN
  CCTOOLS-0919241030

 19 19  0  0  1  0  0  0  0  0999 V2000
    0.1360    0.3700   -0.4040 C   0  0  0  0  0
    1.0780   -0.4640   -0.9760 C   0  0  0  0  0
    0.9430   -0.8560   -2.2950 C   0  0  0  0  0
   -0.1320   -0.4140   -3.0410 C   0  0  0  0  0
   -1.0740    0.4190   -2.4690 C   0  0  0  0  0
   -0.9420    0.8080   -1.1490 C   0  0  0  0  0
    0.2820    0.7980    1.0320 C   0  0  0  0  0
   -0.4200   -0.1900    1.9250 C   0  0  0  0  0
    1.6690    0.8480    1.3760 O   0  0  0  0  0
    0.2000   -0.7910    2.7690 O   0  0  0  0  0
   -1.7380   -0.4030    1.7830 O   0  0  0  0  0
    1.9180   -0.8090   -0.3930 H   0  0  0  0  0
    1.6790   -1.5080   -2.7420 H   0  0  0  0  0
   -0.2360   -0.7200   -4.0720 H   0  0  0  0  0
   -1.9140    0.7650   -3.0530 H   0  0  0  0  0
   -1.6780    1.4600   -0.7020 H   0  0  0  0  0
   -0.1590    1.7860    1.1640 H   0  0  0  0  0
    2.0210   -0.0430    1.2460 H   0  0  0  0  0
   -2.1900   -1.0380    2.3560 H   0  0  0  0  0
  1  2  2  0  0  0
  1  6  1  0  0  0
  1  7  1  0  0  0
  2  3  1  0  0  0
  2 12  1  0  0  0
  3  4  2  0  0  0
  3 13  1  0  0  0
  4  5  1  0  0  0
  4 14  1  0  0  0
  5  6  2  0  0  0
  5 15  1  0  0  0
  6 16  1  0  0  0
  7  8  1  0  0  0
  7  9  1  0  0  0
  7 17  1  0  0  0
  8 10  2  0  0  0
  8 11  1  0  0  0
  9 18  1  0  0  0
 11 19  1  0  0  0
M  END
$$$$
