SNS
  CCTOOLS-0919241030

 67 71  0  0  1  0  0  0  0  0999 V2000
   -0.0250    0.0250   -0.9680 N   0  0  0  0  0
   -1.1750    0.6050   -0.6360 C   0  0  0  0  0
   -2.4060    0.0390   -1.0210 C   0  0  0  0  0
   -3.5720    0.6540   -0.6670 C   0  0  0  0  0
   -3.5800    1.8430    0.0750 C   0  0  0  0  0
   -2.4270    2.4360    0.4750 C   0  0  0  0  0
   -1.1890    1.8490    0.1410 C   0  0  0  0  0
    0.0180    2.4300    0.5350 C   0  0  0  0  0
    1.2030    1.7910    0.1650 C   0  0  0  0  0
    2.4610    2.3170    0.5260 C   0  0  0  0  0
    3.5920    1.6680    0.1500 C   0  0  0  0  0
    3.5410    0.4810   -0.5930 C   0  0  0  0  0
    2.3550   -0.0760   -0.9720 C   0  0  0  0  0
    1.1440    0.5480   -0.6110 C   0  0  0  0  0
    4.7350   -0.1470   -0.9540 N   0  0  0  0  0
    5.7920   -0.1160   -0.1190 C   0  0  0  0  0
    5.6790    0.3730    0.9850 O   0  0  0  0  0
    7.1150   -0.6880   -0.5580 C   0  0  0  0  0
    8.1390   -0.5270    0.5680 C   0  0  0  0  0
    9.4290   -1.0850    0.1410 N   0  0  0  0  0
   10.3740   -1.1660    1.2760 C   0  0  0  0  0
   11.7820   -0.9000    0.7110 C   0  0  0  0  0
   12.5990   -2.0200    0.8970 F   0  0  0  0  0
   11.5680   -0.6350   -0.7970 C   0  0  0  0  0
   10.0800   -0.2100   -0.8670 C   0  0  0  0  0
   -4.7860    0.0850   -1.0540 N   0  0  0  0  0
   -5.8590    0.1680   -0.2420 C   0  0  0  0  0
   -5.7450    0.6520    0.8650 O   0  0  0  0  0
   -7.1990   -0.3390   -0.7080 C   0  0  0  0  0
   -8.2370   -0.1280    0.3950 C   0  0  0  0  0
   -9.5430   -0.6220   -0.0590 N   0  0  0  0  0
  -10.6160   -0.2230    0.8770 C   0  0  0  0  0
  -11.6510   -1.3640    0.8910 C   0  0  0  0  0
  -12.8870   -0.9050    0.4240 F   0  0  0  0  0
  -11.0810   -2.4380   -0.0640 C   0  0  0  0  0
   -9.5670   -2.1070   -0.0940 C   0  0  0  0  0
   -2.4270   -0.8760   -1.5940 H   0  0  0  0  0
   -4.5250    2.2970    0.3330 H   0  0  0  0  0
   -2.4570    3.3520    1.0460 H   0  0  0  0  0
    0.0340    3.3460    1.1070 H   0  0  0  0  0
    2.5240    3.2310    1.0980 H   0  0  0  0  0
    4.5520    2.0760    0.4290 H   0  0  0  0  0
    2.3430   -0.9920   -1.5450 H   0  0  0  0  0
    4.8030   -0.6060   -1.8060 H   0  0  0  0  0
    6.9940   -1.7460   -0.7900 H   0  0  0  0  0
    7.4640   -0.1590   -1.4450 H   0  0  0  0  0
    8.2600    0.5310    0.8000 H   0  0  0  0  0
    7.7900   -1.0560    1.4550 H   0  0  0  0  0
   10.1240   -0.4100    2.0210 H   0  0  0  0  0
   10.3340   -2.1590    1.7220 H   0  0  0  0  0
   12.2230   -0.0260    1.1910 H   0  0  0  0  0
   12.2160    0.1710   -1.1430 H   0  0  0  0  0
   11.7380   -1.5430   -1.3760 H   0  0  0  0  0
    9.6730   -0.3980   -1.8610 H   0  0  0  0  0
    9.9660    0.8400   -0.5960 H   0  0  0  0  0
   -4.8590   -0.3700   -1.9080 H   0  0  0  0  0
   -7.5030    0.2060   -1.6020 H   0  0  0  0  0
   -7.1250   -1.4020   -0.9380 H   0  0  0  0  0
   -7.9330   -0.6730    1.2890 H   0  0  0  0  0
   -8.3110    0.9350    0.6260 H   0  0  0  0  0
  -10.2040   -0.0820    1.8760 H   0  0  0  0  0
  -11.0850    0.6990    0.5320 H   0  0  0  0  0
  -11.7540   -1.7680    1.8990 H   0  0  0  0  0
  -11.2490   -3.4380    0.3360 H   0  0  0  0  0
  -11.5170   -2.3400   -1.0580 H   0  0  0  0  0
   -9.1110   -2.4780   -1.0110 H   0  0  0  0  0
   -9.0660   -2.5200    0.7820 H   0  0  0  0  0
  1  2  2  0  0  0
  1 14  1  0  0  0
  2  3  1  0  0  0
  2  7  1  0  0  0
  3  4  2  0  0  0
  3 37  1  0  0  0
  4  5  1  0  0  0
  4 26  1  0  0  0
  5  6  2  0  0  0
  5 38  1  0  0  0
  6  7  1  0  0  0
  6 39  1  0  0  0
  7  8  2  0  0  0
  8  9  1  0  0  0
  8 40  1  0  0  0
  9 10  1  0  0  0
  9 14  2  0  0  0
 10 11  2  0  0  0
 10 41  1  0  0  0
 11 12  1  0  0  0
 11 42  1  0  0  0
 12 13  2  0  0  0
 12 15  1  0  0  0
 13 14  1  0  0  0
 13 43  1  0  0  0
 15 16  1  0  0  0
 15 44  1  0  0  0
 16 17  2  0  0  0
 16 18  1  0  0  0
 18 19  1  0  0  0
 18 45  1  0  0  0
 18 46  1  0  0  0
 19 20  1  0  0  0
 19 47  1  0  0  0
 19 48  1  0  0  0
 20 21  1  0  0  0
 20 25  1  0  0  0
 21 22  1  0  0  0
 21 49  1  0  0  0
 21 50  1  0  0  0
 22 23  1  0  0  0
 22 24  1  0  0  0
 22 51  1  0  0  0
 24 25  1  0  0  0
 24 52  1  0  0  0
 24 53  1  0  0  0
 25 54  1  0  0  0
 25 55  1  0  0  0
 26 27  1  0  0  0
 26 56  1  0  0  0
 27 28  2  0  0  0
 27 29  1  0  0  0
 29 30  1  0  0  0
 29 57  1  0  0  0
 29 58  1  0  0  0
 30 31  1  0  0  0
 30 59  1  0  0  0
 30 60  1  0  0  0
 31 32  1  0  0  0
 31 36  1  0  0  0
 32 33  1  0  0  0
 32 61  1  0  0  0
 32 62  1  0  0  0
 33 34  1  0  0  0
 33 35  1  0  0  0
 33 63  1  0  0  0
 35 36  1  0  0  0
 35 64  1  0  0  0
 35 65  1  0  0  0
 36 66  1  0  0  0
 36 67  1  0  0  0
M  END
$$$$
