SP2
  CCTOOLS-0919241030

104103  0  0  0  0  0  0  0  0999 V2000
   -2.8020    2.5000  -13.8510 C   0  0  0  0  0
   -2.5580    1.2420  -13.2180 O   0  0  0  0  0
   -3.6540    1.0060  -12.3320 C   0  0  0  0  0
   -3.7020    2.1090  -11.2740 C   0  0  0  0  0
   -4.9610    1.0050  -13.1270 C   0  0  0  0  0
   -3.4740   -0.3500  -11.6470 C   0  0  0  0  0
   -2.1660   -0.3490  -10.8520 C   0  0  0  0  0
   -1.9860   -1.7050  -10.1670 C   0  0  0  0  0
   -0.6980   -1.7050   -9.3840 C   0  0  0  0  0
    0.5830   -2.1490  -10.0410 C   0  0  0  0  0
   -0.6930   -1.3110   -8.1070 C   0  0  0  0  0
    0.5320   -1.2030   -7.4030 C   0  0  0  0  0
    0.5310   -0.9040   -6.0780 C   0  0  0  0  0
    1.7470   -0.7970   -5.3800 C   0  0  0  0  0
    3.0520   -1.0160   -6.1020 C   0  0  0  0  0
    1.7450   -0.4960   -4.0490 C   0  0  0  0  0
    2.9570   -0.2670   -3.3810 C   0  0  0  0  0
    2.9650   -0.0720   -2.0180 C   0  0  0  0  0
    4.1750    0.1560   -1.3510 C   0  0  0  0  0
    5.4680    0.1880   -2.1240 C   0  0  0  0  0
    4.1830    0.3520    0.0110 C   0  0  0  0  0
    5.4000    0.4480    0.6980 C   0  0  0  0  0
    5.4100    0.5380    2.0710 C   0  0  0  0  0
    4.2020    0.5340    2.7830 C   0  0  0  0  0
    4.2120    0.6240    4.1450 C   0  0  0  0  0
    5.5210    0.7270    4.8830 C   0  0  0  0  0
    3.0010    0.6210    4.8580 C   0  0  0  0  0
    3.0130    0.6040    6.2170 C   0  0  0  0  0
    1.7990    0.7330    6.9380 C   0  0  0  0  0
    1.8200    0.8200    8.2720 C   0  0  0  0  0
    3.1350    0.9410    8.9980 C   0  0  0  0  0
    0.5290    0.7990    9.0490 C   0  0  0  0  0
    0.1720   -0.6450    9.4050 C   0  0  0  0  0
   -1.1180   -0.6670   10.1820 C   0  0  0  0  0
   -2.1670   -1.2780    9.6910 C   0  0  0  0  0
   -2.1440   -1.7970    8.2770 C   0  0  0  0  0
   -3.3980   -1.4620   10.5410 C   0  0  0  0  0
   -4.3290   -0.2620   10.3580 C   0  0  0  0  0
   -5.5600   -0.4460   11.2080 C   0  0  0  0  0
   -5.8220    0.4000   12.1730 C   0  0  0  0  0
   -7.1400    0.3290   12.9000 C   0  0  0  0  0
   -4.8060    1.4450   12.5550 C   0  0  0  0  0
   -2.0060    2.7080  -14.5650 H   0  0  0  0  0
   -3.7580    2.4650  -14.3720 H   0  0  0  0  0
   -2.8280    3.2870  -13.0970 H   0  0  0  0  0
   -2.7090    2.2450  -10.8450 H   0  0  0  0  0
   -4.0290    3.0410  -11.7350 H   0  0  0  0  0
   -4.4010    1.8280  -10.4870 H   0  0  0  0  0
   -4.8760    0.3160  -13.9670 H   0  0  0  0  0
   -5.7800    0.6900  -12.4810 H   0  0  0  0  0
   -5.1600    2.0100  -13.5010 H   0  0  0  0  0
   -4.3100   -0.5300  -10.9720 H   0  0  0  0  0
   -3.4400   -1.1360  -12.4010 H   0  0  0  0  0
   -1.3300   -0.1690  -11.5280 H   0  0  0  0  0
   -2.2000    0.4360  -10.0980 H   0  0  0  0  0
   -2.8220   -1.8860   -9.4920 H   0  0  0  0  0
   -1.9520   -2.4920  -10.9210 H   0  0  0  0  0
    0.9510   -3.0480   -9.5470 H   0  0  0  0  0
    0.3970   -2.3620  -11.0930 H   0  0  0  0  0
    1.3270   -1.3570   -9.9570 H   0  0  0  0  0
   -1.6230   -1.0740   -7.6110 H   0  0  0  0  0
    1.4670   -1.3600   -7.9210 H   0  0  0  0  0
   -0.4030   -0.7470   -5.5610 H   0  0  0  0  0
    2.8930   -1.6890   -6.9440 H   0  0  0  0  0
    3.4290   -0.0610   -6.4660 H   0  0  0  0  0
    3.7760   -1.4560   -5.4170 H   0  0  0  0  0
    0.8110   -0.4340   -3.5100 H   0  0  0  0  0
    3.8830   -0.2450   -3.9350 H   0  0  0  0  0
    2.0380   -0.0950   -1.4640 H   0  0  0  0  0
    5.2880    0.6030   -3.1160 H   0  0  0  0  0
    6.1910    0.8090   -1.5970 H   0  0  0  0  0
    5.8590   -0.8240   -2.2200 H   0  0  0  0  0
    3.2510    0.4310    0.5510 H   0  0  0  0  0
    6.3300    0.4500    0.1500 H   0  0  0  0  0
    6.3490    0.6120    2.6010 H   0  0  0  0  0
    3.2640    0.4610    2.2540 H   0  0  0  0  0
    5.3290    0.8810    5.9450 H   0  0  0  0  0
    6.0890   -0.1920    4.7470 H   0  0  0  0  0
    6.0940    1.5690    4.4920 H   0  0  0  0  0
    2.0610    0.6320    4.3270 H   0  0  0  0  0
    3.9470    0.4910    6.7470 H   0  0  0  0  0
    0.8570    0.7610    6.4100 H   0  0  0  0  0
    3.9530    0.8710    8.2820 H   0  0  0  0  0
    3.1800    1.9020    9.5100 H   0  0  0  0  0
    3.2220    0.1360    9.7280 H   0  0  0  0  0
    0.6460    1.3800    9.9630 H   0  0  0  0  0
   -0.2660    1.2310    8.4430 H   0  0  0  0  0
    0.0560   -1.2260    8.4900 H   0  0  0  0  0
    0.9690   -1.0770   10.0110 H   0  0  0  0  0
   -1.1780   -0.1790   11.1430 H   0  0  0  0  0
   -1.2230   -1.4800    7.7880 H   0  0  0  0  0
   -2.1930   -2.8860    8.2880 H   0  0  0  0  0
   -3.0000   -1.4010    7.7300 H   0  0  0  0  0
   -3.9150   -2.3730   10.2400 H   0  0  0  0  0
   -3.1080   -1.5390   11.5890 H   0  0  0  0  0
   -3.8120    0.6480   10.6600 H   0  0  0  0  0
   -4.6200   -0.1840    9.3100 H   0  0  0  0  0
   -6.2250   -1.2750   11.0220 H   0  0  0  0  0
   -7.1760    1.1060   13.6630 H   0  0  0  0  0
   -7.9540    0.4770   12.1920 H   0  0  0  0  0
   -7.2420   -0.6480   13.3720 H   0  0  0  0  0
   -3.8830    1.2740   12.0000 H   0  0  0  0  0
   -5.1950    2.4350   12.3170 H   0  0  0  0  0
   -4.6040    1.3810   13.6240 H   0  0  0  0  0
  1  2  1  0  0  0
  1 43  1  0  0  0
  1 44  1  0  0  0
  1 45  1  0  0  0
  2  3  1  0  0  0
  3  4  1  0  0  0
  3  5  1  0  0  0
  3  6  1  0  0  0
  4 46  1  0  0  0
  4 47  1  0  0  0
  4 48  1  0  0  0
  5 49  1  0  0  0
  5 50  1  0  0  0
  5 51  1  0  0  0
  6  7  1  0  0  0
  6 52  1  0  0  0
  6 53  1  0  0  0
  7  8  1  0  0  0
  7 54  1  0  0  0
  7 55  1  0  0  0
  8  9  1  0  0  0
  8 56  1  0  0  0
  8 57  1  0  0  0
  9 10  1  0  0  0
  9 11  2  0  0  0
 10 58  1  0  0  0
 10 59  1  0  0  0
 10 60  1  0  0  0
 11 12  1  0  0  0
 11 61  1  0  0  0
 12 13  2  0  0  0
 12 62  1  0  0  0
 13 14  1  0  0  0
 13 63  1  0  0  0
 14 15  1  0  0  0
 14 16  2  0  0  0
 15 64  1  0  0  0
 15 65  1  0  0  0
 15 66  1  0  0  0
 16 17  1  0  0  0
 16 67  1  0  0  0
 17 18  2  0  0  0
 17 68  1  0  0  0
 18 19  1  0  0  0
 18 69  1  0  0  0
 19 20  1  0  0  0
 19 21  2  0  0  0
 20 70  1  0  0  0
 20 71  1  0  0  0
 20 72  1  0  0  0
 21 22  1  0  0  0
 21 73  1  0  0  0
 22 23  2  0  0  0
 22 74  1  0  0  0
 23 24  1  0  0  0
 23 75  1  0  0  0
 24 25  2  0  0  0
 24 76  1  0  0  0
 25 26  1  0  0  0
 25 27  1  0  0  0
 26 77  1  0  0  0
 26 78  1  0  0  0
 26 79  1  0  0  0
 27 28  2  0  0  0
 27 80  1  0  0  0
 28 29  1  0  0  0
 28 81  1  0  0  0
 29 30  2  0  0  0
 29 82  1  0  0  0
 30 31  1  0  0  0
 30 32  1  0  0  0
 31 83  1  0  0  0
 31 84  1  0  0  0
 31 85  1  0  0  0
 32 33  1  0  0  0
 32 86  1  0  0  0
 32 87  1  0  0  0
 33 34  1  0  0  0
 33 88  1  0  0  0
 33 89  1  0  0  0
 34 35  2  0  0  0
 34 90  1  0  0  0
 35 36  1  0  0  0
 35 37  1  0  0  0
 36 91  1  0  0  0
 36 92  1  0  0  0
 36 93  1  0  0  0
 37 38  1  0  0  0
 37 94  1  0  0  0
 37 95  1  0  0  0
 38 39  1  0  0  0
 38 96  1  0  0  0
 38 97  1  0  0  0
 39 40  2  0  0  0
 39 98  1  0  0  0
 40 41  1  0  0  0
 40 42  1  0  0  0
 41 99  1  0  0  0
 41100  1  0  0  0
 41101  1  0  0  0
 42102  1  0  0  0
 42103  1  0  0  0
 42104  1  0  0  0
M  END
$$$$
