SPM
  CCTOOLS-1004241121

 40 39  0  0  0  0  0  0  0  0999 V2000
   -0.2920    0.0120    7.9610 N   0  0  0  0  0
    0.5140   -0.0230    6.7340 C   0  0  0  0  0
   -0.4080    0.0140    5.5150 C   0  0  0  0  0
    0.4320   -0.0220    4.2370 C   0  0  0  0  0
   -0.4530    0.0130    3.0660 N   0  0  0  0  0
    0.4110   -0.0240    1.8800 C   0  0  0  0  0
   -0.4510    0.0110    0.6170 C   0  0  0  0  0
    0.4500   -0.0280   -0.6170 C   0  0  0  0  0
   -0.4120    0.0060   -1.8800 C   0  0  0  0  0
    0.4530   -0.0310   -3.0660 N   0  0  0  0  0
   -0.4330    0.0050   -4.2370 C   0  0  0  0  0
    0.4070   -0.0320   -5.5150 C   0  0  0  0  0
   -0.5150    0.0050   -6.7340 C   0  0  0  0  0
    0.2920   -0.0290   -7.9610 N   0  0  0  0  0
   -0.7390    0.9160    7.9880 H   0  0  0  0  0
    0.3540   -0.0140    8.7350 H   0  0  0  0  0
    1.1810    0.8380    6.7130 H   0  0  0  0  0
    1.1050   -0.9390    6.7150 H   0  0  0  0  0
   -1.0740   -0.8470    5.5360 H   0  0  0  0  0
   -0.9990    0.9300    5.5340 H   0  0  0  0  0
    1.0980    0.8390    4.2150 H   0  0  0  0  0
    1.0230   -0.9380    4.2170 H   0  0  0  0  0
   -0.9760   -0.8490    3.0710 H   0  0  0  0  0
    1.0780    0.8380    1.8890 H   0  0  0  0  0
    1.0020   -0.9400    1.8910 H   0  0  0  0  0
   -1.1170   -0.8510    0.6080 H   0  0  0  0  0
   -1.0420    0.9270    0.6070 H   0  0  0  0  0
    1.1170    0.8330   -0.6080 H   0  0  0  0  0
    1.0410   -0.9440   -0.6070 H   0  0  0  0  0
   -1.0790   -0.8550   -1.8890 H   0  0  0  0  0
   -1.0030    0.9220   -1.8910 H   0  0  0  0  0
    0.9760    0.8310   -3.0710 H   0  0  0  0  0
   -1.0990   -0.8570   -4.2150 H   0  0  0  0  0
   -1.0230    0.9210   -4.2170 H   0  0  0  0  0
    1.0740    0.8300   -5.5360 H   0  0  0  0  0
    0.9980   -0.9480   -5.5340 H   0  0  0  0  0
   -1.1810   -0.8560   -6.7130 H   0  0  0  0  0
   -1.1050    0.9210   -6.7140 H   0  0  0  0  0
   -0.3540   -0.0030   -8.7350 H   0  0  0  0  0
    0.8140    0.8330   -7.9900 H   0  0  0  0  0
  1  2  1  0  0  0
  1 15  1  0  0  0
  1 16  1  0  0  0
  2  3  1  0  0  0
  2 17  1  0  0  0
  2 18  1  0  0  0
  3  4  1  0  0  0
  3 19  1  0  0  0
  3 20  1  0  0  0
  4  5  1  0  0  0
  4 21  1  0  0  0
  4 22  1  0  0  0
  5  6  1  0  0  0
  5 23  1  0  0  0
  6  7  1  0  0  0
  6 24  1  0  0  0
  6 25  1  0  0  0
  7  8  1  0  0  0
  7 26  1  0  0  0
  7 27  1  0  0  0
  8  9  1  0  0  0
  8 28  1  0  0  0
  8 29  1  0  0  0
  9 10  1  0  0  0
  9 30  1  0  0  0
  9 31  1  0  0  0
 10 11  1  0  0  0
 10 32  1  0  0  0
 11 12  1  0  0  0
 11 33  1  0  0  0
 11 34  1  0  0  0
 12 13  1  0  0  0
 12 35  1  0  0  0
 12 36  1  0  0  0
 13 14  1  0  0  0
 13 37  1  0  0  0
 13 38  1  0  0  0
 14 39  1  0  0  0
 14 40  1  0  0  0
M  END
$$$$
