SQ
  CCTOOLS-0919241030

 23 23  0  0  1  0  0  0  0  0999 V2000
    2.6680    0.5320    0.1440 O   0  0  0  0  0
    1.0910   -1.2620   -2.0670 O   0  0  0  0  0
   -0.3910   -0.2950    1.2950 N   0  0  0  0  0
   -1.6610   -0.1260   -1.1700 N   0  0  0  0  0
    0.1540    0.7010    0.3660 C   0  0  0  0  0
    1.5210    0.3400   -0.1820 C   0  0  0  0  0
    0.8240   -0.3620   -1.3080 C   0  0  0  0  0
   -0.3620    0.5520   -1.0750 C   0  0  0  0  0
   -2.3360    0.4170   -2.3560 C   0  0  0  0  0
   -0.3970    0.3250    2.6260 C   0  0  0  0  0
   -0.9580   -0.6640    3.6490 C   0  0  0  0  0
    0.2730   -1.0530    1.3320 H   0  0  0  0  0
   -1.4680   -1.0960   -1.3650 H   0  0  0  0  0
    0.0920    1.7190    0.7500 H   0  0  0  0  0
   -0.3230    1.4760   -1.6530 H   0  0  0  0  0
   -3.3110   -0.0580   -2.4690 H   0  0  0  0  0
   -2.4680    1.4920   -2.2380 H   0  0  0  0  0
   -1.7310    0.2200   -3.2400 H   0  0  0  0  0
   -1.0200    1.2200    2.6070 H   0  0  0  0  0
    0.6200    0.5980    2.9040 H   0  0  0  0  0
   -0.9620   -0.2030    4.6360 H   0  0  0  0  0
   -1.9760   -0.9360    3.3710 H   0  0  0  0  0
   -0.3350   -1.5580    3.6680 H   0  0  0  0  0
  1  6  2  0  0  0
  2  7  2  0  0  0
  3  5  1  0  0  0
  3 10  1  0  0  0
  3 12  1  0  0  0
  4  8  1  0  0  0
  4  9  1  0  0  0
  4 13  1  0  0  0
  5  6  1  0  0  0
  5  8  1  0  0  0
  5 14  1  0  0  0
  6  7  1  0  0  0
  7  8  1  0  0  0
  8 15  1  0  0  0
  9 16  1  0  0  0
  9 17  1  0  0  0
  9 18  1  0  0  0
 10 11  1  0  0  0
 10 19  1  0  0  0
 10 20  1  0  0  0
 11 21  1  0  0  0
 11 22  1  0  0  0
 11 23  1  0  0  0
M  END
$$$$
