SQD
  CCTOOLS-0919241030

132132  0  0  1  0  0  0  0  0999 V2000
    2.0070   -3.8250   -4.6110 O   0  0  0  0  0
    0.9850   -4.1830   -3.6860 C   0  0  0  0  0
   -0.3790   -3.8040   -4.2500 C   0  0  0  0  0
   -0.6530   -4.5140   -5.5690 C   0  0  0  0  0
   -1.3880   -4.2010   -3.3180 O   0  0  0  0  0
   -1.3050   -3.6350   -2.0790 C   0  0  0  0  0
   -0.4580   -2.8330   -1.7090 O   0  0  0  0  0
   -2.4260   -4.1460   -1.2050 C   0  0  0  0  0
   -2.0270   -4.2180    0.2680 C   0  0  0  0  0
   -0.8660   -5.1680    0.5850 C   0  0  0  0  0
   -0.4490   -5.1630    2.0580 C   0  0  0  0  0
    0.7250   -6.1140    2.3020 C   0  0  0  0  0
    1.2400   -6.0930    3.7440 C   0  0  0  0  0
    2.4530   -6.9850    4.0350 C   0  0  0  0  0
    2.9440   -6.9020    5.4820 C   0  0  0  0  0
    4.1770   -7.7820    5.7010 C   0  0  0  0  0
    4.6880   -7.6700    7.1400 C   0  0  0  0  0
    5.9030   -8.5710    7.3670 C   0  0  0  0  0
    6.4390   -8.5230    8.8020 C   0  0  0  0  0
    7.7010   -9.3650    9.0080 C   0  0  0  0  0
    8.2320   -9.3170   10.4430 C   0  0  0  0  0
    9.5030  -10.1260   10.6500 C   0  0  0  0  0
   -1.9540   -4.1430   -6.0350 O   0  0  0  0  0
   -2.3410   -4.7050   -7.2160 C   0  0  0  0  0
   -1.6830   -5.4830   -7.8950 O   0  0  0  0  0
   -3.7240   -4.2240   -7.5840 C   0  0  0  0  0
   -4.2020   -4.7920   -8.9190 C   0  0  0  0  0
   -5.6190   -4.3800   -9.3360 C   0  0  0  0  0
   -6.0380   -4.9110  -10.7080 C   0  0  0  0  0
   -7.4510   -4.4480  -11.0710 C   0  0  0  0  0
   -7.8960   -4.8830  -12.4710 C   0  0  0  0  0
   -9.2820   -4.3980  -12.9130 C   0  0  0  0  0
   -9.6640   -4.8350  -14.3290 C   0  0  0  0  0
  -11.0380   -4.2920  -14.7270 C   0  0  0  0  0
  -11.4020   -4.7000  -16.1560 C   0  0  0  0  0
  -12.7880   -4.1800  -16.5450 C   0  0  0  0  0
  -13.2180   -4.5860  -17.9580 C   0  0  0  0  0
  -14.5700   -4.0010  -18.3730 C   0  0  0  0  0
  -14.9990   -4.4110  -19.7850 C   0  0  0  0  0
  -16.3270   -3.8100  -20.2170 C   0  0  0  0  0
    3.3040   -4.1250   -4.0970 C   0  0  0  0  0
    4.3340   -3.7120   -5.1480 C   0  0  0  0  0
    4.1650   -4.5470   -6.2930 O   0  0  0  0  0
    5.7600   -3.8600   -4.6180 C   0  0  0  0  0
    6.6680   -3.2080   -5.5070 O   0  0  0  0  0
    5.9070   -3.2190   -3.2380 C   0  0  0  0  0
    7.1710   -3.5760   -2.6840 O   0  0  0  0  0
    4.7930   -3.6880   -2.2990 C   0  0  0  0  0
    4.8490   -2.9730   -0.9530 C   0  0  0  0  0
    3.5170   -3.4120   -2.8810 O   0  0  0  0  0
    3.5520   -3.5110    0.1050 S   0  0  0  0  0
    3.6810   -4.9420    0.3290 O   0  0  0  0  0
    4.0310   -2.7280    1.4540 O   0  0  0  0  0
    2.2990   -2.9300   -0.3470 O   0  0  0  0  0
    1.0590   -5.2590   -3.4990 H   0  0  0  0  0
    1.1890   -3.6480   -2.7530 H   0  0  0  0  0
   -0.4710   -2.7190   -4.3700 H   0  0  0  0  0
   -0.6380   -5.6020   -5.4450 H   0  0  0  0  0
    0.0760   -4.2230   -6.3320 H   0  0  0  0  0
   -3.2770   -3.4670   -1.3330 H   0  0  0  0  0
   -2.7590   -5.1280   -1.5560 H   0  0  0  0  0
   -1.7510   -3.2140    0.6170 H   0  0  0  0  0
   -2.9050   -4.5190    0.8530 H   0  0  0  0  0
   -1.1340   -6.1880    0.2850 H   0  0  0  0  0
   -0.0080   -4.8800   -0.0350 H   0  0  0  0  0
   -1.2990   -5.4670    2.6740 H   0  0  0  0  0
   -0.1700   -4.1470    2.3620 H   0  0  0  0  0
    0.4390   -7.1360    2.0260 H   0  0  0  0  0
    1.5530   -5.8400    1.6370 H   0  0  0  0  0
    0.4250   -6.3880    4.4170 H   0  0  0  0  0
    1.4940   -5.0580    4.0040 H   0  0  0  0  0
    2.1750   -8.0220    3.8090 H   0  0  0  0  0
    3.2720   -6.7340    3.3500 H   0  0  0  0  0
    2.1410   -7.2130    6.1610 H   0  0  0  0  0
    3.2020   -5.8670    5.7340 H   0  0  0  0  0
    4.9690   -7.4810    5.0060 H   0  0  0  0  0
    3.9290   -8.8270    5.4790 H   0  0  0  0  0
    4.9570   -6.6290    7.3540 H   0  0  0  0  0
    3.8800   -7.9450    7.8270 H   0  0  0  0  0
    5.6540   -9.6060    7.1010 H   0  0  0  0  0
    6.7100   -8.2580    6.6930 H   0  0  0  0  0
    6.6550   -7.4750    9.0390 H   0  0  0  0  0
    5.6560   -8.8500    9.4980 H   0  0  0  0  0
    7.4860  -10.4130    8.7700 H   0  0  0  0  0
    8.4840   -9.0350    8.3150 H   0  0  0  0  0
    7.4580   -9.7120   11.1120 H   0  0  0  0  0
    8.4080   -8.2770   10.7420 H   0  0  0  0  0
    9.3670  -11.1620   10.3240 H   0  0  0  0  0
    9.7710  -10.1380   11.7120 H   0  0  0  0  0
   10.3470   -9.6970   10.1020 H   0  0  0  0  0
   -4.4030   -4.5290   -6.7790 H   0  0  0  0  0
   -3.7480   -3.1290   -7.6080 H   0  0  0  0  0
   -3.5100   -4.4810   -9.7120 H   0  0  0  0  0
   -4.1480   -5.8870   -8.8710 H   0  0  0  0  0
   -6.3370   -4.7190   -8.5790 H   0  0  0  0  0
   -5.6700   -3.2840   -9.3410 H   0  0  0  0  0
   -6.0040   -6.0040  -10.6980 H   0  0  0  0  0
   -5.3290   -4.5690  -11.4720 H   0  0  0  0  0
   -8.1660   -4.8150  -10.3260 H   0  0  0  0  0
   -7.4930   -3.3530  -11.0220 H   0  0  0  0  0
   -7.8790   -5.9780  -12.5260 H   0  0  0  0  0
   -7.1520   -4.5270  -13.1950 H   0  0  0  0  0
  -10.0210   -4.7920  -12.2040 H   0  0  0  0  0
   -9.3380   -3.3060  -12.8330 H   0  0  0  0  0
   -9.6680   -5.9300  -14.3870 H   0  0  0  0  0
   -8.9210   -4.4730  -15.0480 H   0  0  0  0  0
  -11.0350   -3.1980  -14.6460 H   0  0  0  0  0
  -11.7990   -4.6660  -14.0310 H   0  0  0  0  0
  -10.6530   -4.3040  -16.8530 H   0  0  0  0  0
  -11.3730   -5.7920  -16.2330 H   0  0  0  0  0
  -13.5320   -4.5280  -15.8180 H   0  0  0  0  0
  -12.7840   -3.0840  -16.4930 H   0  0  0  0  0
  -12.4420   -4.2420  -18.6510 H   0  0  0  0  0
  -13.2480   -5.6800  -18.0330 H   0  0  0  0  0
  -15.3470   -4.3430  -17.6790 H   0  0  0  0  0
  -14.5390   -2.9070  -18.3010 H   0  0  0  0  0
  -15.0870   -5.5030  -19.8150 H   0  0  0  0  0
  -14.2210   -4.1360  -20.5060 H   0  0  0  0  0
  -17.1160   -4.0370  -19.4930 H   0  0  0  0  0
  -16.6280   -4.2220  -21.1860 H   0  0  0  0  0
  -16.2600   -2.7230  -20.3280 H   0  0  0  0  0
    3.3290   -5.2050   -3.9070 H   0  0  0  0  0
    4.1570   -2.6810   -5.4780 H   0  0  0  0  0
    4.2420   -5.4610   -5.9790 H   0  0  0  0  0
    6.0600   -4.9140   -4.5920 H   0  0  0  0  0
    7.5050   -3.6930   -5.4460 H   0  0  0  0  0
    5.8900   -2.1270   -3.3380 H   0  0  0  0  0
    7.0010   -4.2830   -2.0420 H   0  0  0  0  0
    4.8770   -4.7650   -2.1030 H   0  0  0  0  0
    4.7400   -1.8990   -1.0910 H   0  0  0  0  0
    5.7930   -3.1830   -0.4530 H   0  0  0  0  0
    4.8430   -3.0870    1.8840 H   0  0  0  0  0
  1  2  1  0  0  0
  1 41  1  0  0  0
  2  3  1  0  0  0
  2 55  1  0  0  0
  2 56  1  0  0  0
  3  4  1  0  0  0
  3  5  1  0  0  0
  3 57  1  0  0  0
  4 23  1  0  0  0
  4 58  1  0  0  0
  4 59  1  0  0  0
  5  6  1  0  0  0
  6  7  2  0  0  0
  6  8  1  0  0  0
  8  9  1  0  0  0
  8 60  1  0  0  0
  8 61  1  0  0  0
  9 10  1  0  0  0
  9 62  1  0  0  0
  9 63  1  0  0  0
 10 11  1  0  0  0
 10 64  1  0  0  0
 10 65  1  0  0  0
 11 12  1  0  0  0
 11 66  1  0  0  0
 11 67  1  0  0  0
 12 13  1  0  0  0
 12 68  1  0  0  0
 12 69  1  0  0  0
 13 14  1  0  0  0
 13 70  1  0  0  0
 13 71  1  0  0  0
 14 15  1  0  0  0
 14 72  1  0  0  0
 14 73  1  0  0  0
 15 16  1  0  0  0
 15 74  1  0  0  0
 15 75  1  0  0  0
 16 17  1  0  0  0
 16 76  1  0  0  0
 16 77  1  0  0  0
 17 18  1  0  0  0
 17 78  1  0  0  0
 17 79  1  0  0  0
 18 19  1  0  0  0
 18 80  1  0  0  0
 18 81  1  0  0  0
 19 20  1  0  0  0
 19 82  1  0  0  0
 19 83  1  0  0  0
 20 21  1  0  0  0
 20 84  1  0  0  0
 20 85  1  0  0  0
 21 22  1  0  0  0
 21 86  1  0  0  0
 21 87  1  0  0  0
 22 88  1  0  0  0
 22 89  1  0  0  0
 22 90  1  0  0  0
 23 24  1  0  0  0
 24 25  2  0  0  0
 24 26  1  0  0  0
 26 27  1  0  0  0
 26 91  1  0  0  0
 26 92  1  0  0  0
 27 28  1  0  0  0
 27 93  1  0  0  0
 27 94  1  0  0  0
 28 29  1  0  0  0
 28 95  1  0  0  0
 28 96  1  0  0  0
 29 30  1  0  0  0
 29 97  1  0  0  0
 29 98  1  0  0  0
 30 31  1  0  0  0
 30 99  1  0  0  0
 30100  1  0  0  0
 31 32  1  0  0  0
 31101  1  0  0  0
 31102  1  0  0  0
 32 33  1  0  0  0
 32103  1  0  0  0
 32104  1  0  0  0
 33 34  1  0  0  0
 33105  1  0  0  0
 33106  1  0  0  0
 34 35  1  0  0  0
 34107  1  0  0  0
 34108  1  0  0  0
 35 36  1  0  0  0
 35109  1  0  0  0
 35110  1  0  0  0
 36 37  1  0  0  0
 36111  1  0  0  0
 36112  1  0  0  0
 37 38  1  0  0  0
 37113  1  0  0  0
 37114  1  0  0  0
 38 39  1  0  0  0
 38115  1  0  0  0
 38116  1  0  0  0
 39 40  1  0  0  0
 39117  1  0  0  0
 39118  1  0  0  0
 40119  1  0  0  0
 40120  1  0  0  0
 40121  1  0  0  0
 41 42  1  0  0  0
 41 50  1  0  0  0
 41122  1  0  0  0
 42 43  1  0  0  0
 42 44  1  0  0  0
 42123  1  0  0  0
 43124  1  0  0  0
 44 45  1  0  0  0
 44 46  1  0  0  0
 44125  1  0  0  0
 45126  1  0  0  0
 46 47  1  0  0  0
 46 48  1  0  0  0
 46127  1  0  0  0
 47128  1  0  0  0
 48 49  1  0  0  0
 48 50  1  0  0  0
 48129  1  0  0  0
 49 51  1  0  0  0
 49130  1  0  0  0
 49131  1  0  0  0
 51 52  2  0  0  0
 51 53  1  0  0  0
 51 54  2  0  0  0
 53132  1  0  0  0
M  END
$$$$
