SRO
  CCTOOLS-1004241121

 25 26  0  0  0  0  0  0  0  0999 V2000
   -2.7470    2.4070   -0.0690 O   0  0  0  0  0
   -2.1630    1.1800   -0.0140 C   0  0  0  0  0
   -2.9360    0.0560    0.2690 C   0  0  0  0  0
   -2.3610   -1.1930    0.3290 C   0  0  0  0  0
   -0.9960   -1.3420    0.1040 C   0  0  0  0  0
   -0.1520   -2.4320    0.0940 N   0  0  0  0  0
    1.1250   -2.0280   -0.1860 C   0  0  0  0  0
    1.1560   -0.6980   -0.3640 C   0  0  0  0  0
   -0.2130   -0.2090   -0.1820 C   0  0  0  0  0
   -0.8080    1.0530   -0.2450 C   0  0  0  0  0
    2.3690    0.1350   -0.6870 C   0  0  0  0  0
    2.9580    0.7020    0.6060 C   0  0  0  0  0
    4.1410    1.5140    0.2900 N   0  0  0  0  0
   -3.0740    2.6480   -0.9470 H   0  0  0  0  0
   -3.9960    0.1660    0.4450 H   0  0  0  0  0
   -2.9690   -2.0580    0.5500 H   0  0  0  0  0
   -0.4220   -3.3480    0.2620 H   0  0  0  0  0
    1.9820   -2.6830   -0.2540 H   0  0  0  0  0
   -0.2110    1.9240   -0.4690 H   0  0  0  0  0
    3.1140   -0.4860   -1.1850 H   0  0  0  0  0
    2.0820    0.9550   -1.3460 H   0  0  0  0  0
    2.2130    1.3230    1.1030 H   0  0  0  0  0
    3.2460   -0.1180    1.2640 H   0  0  0  0  0
    3.9140    2.2430   -0.3700 H   0  0  0  0  0
    4.5490    1.9000    1.1280 H   0  0  0  0  0
  1  2  1  0  0  0
  1 14  1  0  0  0
  2 10  2  0  0  0
  2  3  1  0  0  0
  3  4  2  0  0  0
  3 15  1  0  0  0
  4  5  1  0  0  0
  4 16  1  0  0  0
  5  6  1  0  0  0
  5  9  2  0  0  0
  6  7  1  0  0  0
  6 17  1  0  0  0
  7  8  2  0  0  0
  7 18  1  0  0  0
  8 11  1  0  0  0
  8  9  1  0  0  0
  9 10  1  0  0  0
 10 19  1  0  0  0
 11 12  1  0  0  0
 11 20  1  0  0  0
 11 21  1  0  0  0
 12 13  1  0  0  0
 12 22  1  0  0  0
 12 23  1  0  0  0
 13 24  1  0  0  0
 13 25  1  0  0  0
M  END
$$$$
