ST9
  CCTOOLS-0919241031

137139  0  0  1  0  0  0  0  0999 V2000
   -9.2030   -2.5400   -1.2900 C   0  0  0  0  0
  -10.5520   -2.3080   -1.9210 C   0  0  0  0  0
   -8.9860   -2.1530   -0.1610 O   0  0  0  0  0
  -11.4570   -1.5700   -0.9320 C   0  0  0  0  0
  -12.8260   -1.3340   -1.5720 C   0  0  0  0  0
  -13.7310   -0.5960   -0.5840 C   0  0  0  0  0
  -15.1010   -0.3600   -1.2240 C   0  0  0  0  0
  -16.0050    0.3780   -0.2350 C   0  0  0  0  0
  -17.3750    0.6140   -0.8760 C   0  0  0  0  0
  -18.2800    1.3520    0.1130 C   0  0  0  0  0
  -19.6490    1.5880   -0.5270 C   0  0  0  0  0
  -20.5540    2.3260    0.4610 C   0  0  0  0  0
  -21.9230    2.5620   -0.1790 C   0  0  0  0  0
  -22.8280    3.3000    0.8100 C   0  0  0  0  0
  -24.1980    3.5360    0.1700 C   0  0  0  0  0
  -25.1030    4.2740    1.1580 C   0  0  0  0  0
  -26.4720    4.5100    0.5180 C   0  0  0  0  0
  -27.3770    5.2480    1.5070 C   0  0  0  0  0
  -28.7460    5.4830    0.8670 C   0  0  0  0  0
    9.5180    8.7220    0.1890 N   0  0  0  0  0
    9.8900   -1.5180    2.6790 O   0  0  0  0  0
    9.5120   -1.8090    1.2780 P   0  0  0  0  0
   10.4900    3.6620   -0.4720 C   0  0  0  0  0
   -7.9780   -3.3560   -2.1650 S   0  0  0  0  0
   10.0090    8.1070   -0.8710 C   0  0  0  0  0
   10.4190   -3.0150    0.7170 O   0  0  0  0  0
    7.0100   -3.1360    2.1520 P   0  0  0  0  0
   12.0280    3.5130   -0.3470 C   0  0  0  0  0
   12.7020    4.4350   -1.2060 O   0  0  0  0  0
   -6.6500   -3.3400   -0.9350 C   0  0  0  0  0
   10.2080    6.8060   -0.9050 N   0  0  0  0  0
    7.9600   -2.2320    1.2180 O   0  0  0  0  0
   12.2510    2.0550   -0.8180 C   0  0  0  0  0
   12.6450    2.0280   -2.1920 O   0  0  0  0  0
   14.0280    1.3750   -2.6950 P   0  0  0  0  0
   -5.4150   -4.0360   -1.5100 C   0  0  0  0  0
    9.9160    6.0490    0.1470 C   0  0  0  0  0
    6.5360   -2.2760    3.4280 O   0  0  0  0  0
   10.8750    1.3850   -0.6380 C   0  0  0  0  0
    9.9920    2.3680   -0.0720 O   0  0  0  0  0
   -4.3400   -4.0230   -0.5150 N   0  0  0  0  0
    9.3900    6.6550    1.3000 C   0  0  0  0  0
    7.7590   -4.3270    2.6110 O   0  0  0  0  0
   10.9990    0.1870    0.3060 C   0  0  0  0  0
    9.7460   -0.4960    0.3750 O   0  0  0  0  0
   -3.1480   -4.5840   -0.8030 C   0  0  0  0  0
   -2.9660   -5.1000   -1.8850 O   0  0  0  0  0
    9.1960    8.0470    1.2880 C   0  0  0  0  0
    8.6820    8.7000    2.3950 N   0  0  0  0  0
    5.7190   -3.6040    1.3110 O   0  0  0  0  0
   -2.0420   -4.5700    0.2210 C   0  0  0  0  0
    9.1840    5.6720    2.2090 N   0  0  0  0  0
   14.0070   -0.2100   -2.4140 O   0  0  0  0  0
   -0.8070   -5.2660   -0.3540 C   0  0  0  0  0
    9.5410    4.5290    1.6990 C   0  0  0  0  0
   14.2020    1.6380   -4.2740 O   0  0  0  0  0
    0.2680   -5.2530    0.6420 N   0  0  0  0  0
    9.9990    4.7080    0.4280 N   0  0  0  0  0
   15.1580    1.9910   -1.9640 O   0  0  0  0  0
    1.4590   -5.8140    0.3540 C   0  0  0  0  0
    1.6120   -6.4110   -0.6910 O   0  0  0  0  0
    2.6010   -5.7000    1.3310 C   0  0  0  0  0
    2.1130   -5.2050    2.5790 O   0  0  0  0  0
    3.6520   -4.7360    0.7760 C   0  0  0  0  0
    4.7380   -4.5040    1.8290 C   0  0  0  0  0
    4.2820   -5.3370   -0.4820 C   0  0  0  0  0
    2.9880   -3.4030    0.4280 C   0  0  0  0  0
  -10.4330   -1.7080   -2.8230 H   0  0  0  0  0
  -11.0020   -3.2670   -2.1790 H   0  0  0  0  0
  -11.5760   -2.1700   -0.0300 H   0  0  0  0  0
  -11.0070   -0.6110   -0.6740 H   0  0  0  0  0
  -12.7070   -0.7340   -2.4740 H   0  0  0  0  0
  -13.2760   -2.2930   -1.8310 H   0  0  0  0  0
  -13.8500   -1.1960    0.3180 H   0  0  0  0  0
  -13.2810    0.3630   -0.3250 H   0  0  0  0  0
  -14.9820    0.2400   -2.1260 H   0  0  0  0  0
  -15.5510   -1.3190   -1.4820 H   0  0  0  0  0
  -16.1240   -0.2220    0.6660 H   0  0  0  0  0
  -15.5550    1.3370    0.0230 H   0  0  0  0  0
  -17.2560    1.2140   -1.7770 H   0  0  0  0  0
  -17.8250   -0.3450   -1.1340 H   0  0  0  0  0
  -18.3990    0.7510    1.0150 H   0  0  0  0  0
  -17.8300    2.3100    0.3710 H   0  0  0  0  0
  -19.5300    2.1880   -1.4290 H   0  0  0  0  0
  -20.0990    0.6290   -0.7850 H   0  0  0  0  0
  -20.6730    1.7250    1.3630 H   0  0  0  0  0
  -20.1040    3.2840    0.7200 H   0  0  0  0  0
  -21.8040    3.1620   -1.0810 H   0  0  0  0  0
  -22.3740    1.6030   -0.4370 H   0  0  0  0  0
  -22.9470    2.6990    1.7120 H   0  0  0  0  0
  -22.3780    4.2580    1.0680 H   0  0  0  0  0
  -24.0790    4.1360   -0.7320 H   0  0  0  0  0
  -24.6480    2.5770   -0.0890 H   0  0  0  0  0
  -25.2220    3.6730    2.0600 H   0  0  0  0  0
  -24.6520    5.2320    1.4170 H   0  0  0  0  0
  -26.3530    5.1100   -0.3840 H   0  0  0  0  0
  -26.9220    3.5510    0.2600 H   0  0  0  0  0
  -27.4960    4.6470    2.4090 H   0  0  0  0  0
  -26.9270    6.2060    1.7650 H   0  0  0  0  0
  -29.3910    6.0090    1.5710 H   0  0  0  0  0
  -28.6270    6.0840   -0.0350 H   0  0  0  0  0
  -29.1960    4.5250    0.6080 H   0  0  0  0  0
   10.2080    3.8810   -1.5020 H   0  0  0  0  0
   10.2570    8.6940   -1.7430 H   0  0  0  0  0
   10.2250   -3.2600   -0.1980 H   0  0  0  0  0
   12.3490    3.6410    0.6870 H   0  0  0  0  0
   12.5200    5.3630   -1.0060 H   0  0  0  0  0
   -6.4020   -2.3100   -0.6820 H   0  0  0  0  0
   -6.9790   -3.8650   -0.0380 H   0  0  0  0  0
   13.0010    1.5640   -0.1980 H   0  0  0  0  0
   -5.6630   -5.0670   -1.7630 H   0  0  0  0  0
   -5.0860   -3.5110   -2.4070 H   0  0  0  0  0
    6.0380   -1.4780    3.2020 H   0  0  0  0  0
   10.4930    1.0570   -1.6050 H   0  0  0  0  0
   -4.4850   -3.6110    0.3510 H   0  0  0  0  0
   11.7640   -0.4930   -0.0690 H   0  0  0  0  0
   11.2790    0.5350    1.3000 H   0  0  0  0  0
    8.5530    9.6610    2.3750 H   0  0  0  0  0
    8.4510    8.1960    3.1910 H   0  0  0  0  0
   -1.7940   -3.5400    0.4740 H   0  0  0  0  0
   -2.3710   -5.0960    1.1180 H   0  0  0  0  0
   13.2900   -0.6790   -2.8620 H   0  0  0  0  0
   -1.0550   -6.2970   -0.6070 H   0  0  0  0  0
   -0.4780   -4.7410   -1.2500 H   0  0  0  0  0
    9.4820    3.5780    2.2090 H   0  0  0  0  0
   15.0160    1.2720   -4.6460 H   0  0  0  0  0
    0.1230   -4.8410    1.5080 H   0  0  0  0  0
    3.0520   -6.6810    1.4800 H   0  0  0  0  0
    1.6980   -4.3340    2.5220 H   0  0  0  0  0
    5.2110   -5.4540    2.0780 H   0  0  0  0  0
    4.2890   -4.0770    2.7260 H   0  0  0  0  0
    3.5230   -5.4290   -1.2590 H   0  0  0  0  0
    5.0840   -4.6870   -0.8330 H   0  0  0  0  0
    4.6870   -6.3220   -0.2510 H   0  0  0  0  0
    2.5390   -2.9750    1.3240 H   0  0  0  0  0
    3.7360   -2.7160    0.0330 H   0  0  0  0  0
    2.2140   -3.5680   -0.3220 H   0  0  0  0  0
  1  3  2  0  0  0
  1 24  1  0  0  0
  2  1  1  0  0  0
  2 68  1  0  0  0
  2 69  1  0  0  0
  4  2  1  0  0  0
  4 70  1  0  0  0
  4 71  1  0  0  0
  5  4  1  0  0  0
  5 72  1  0  0  0
  5 73  1  0  0  0
  6  5  1  0  0  0
  6 74  1  0  0  0
  6 75  1  0  0  0
  7  6  1  0  0  0
  7  8  1  0  0  0
  7 76  1  0  0  0
  7 77  1  0  0  0
  8  9  1  0  0  0
  8 78  1  0  0  0
  8 79  1  0  0  0
  9 10  1  0  0  0
  9 80  1  0  0  0
  9 81  1  0  0  0
 10 11  1  0  0  0
 10 82  1  0  0  0
 10 83  1  0  0  0
 11 12  1  0  0  0
 11 84  1  0  0  0
 11 85  1  0  0  0
 12 13  1  0  0  0
 12 86  1  0  0  0
 12 87  1  0  0  0
 13 88  1  0  0  0
 13 89  1  0  0  0
 14 13  1  0  0  0
 14 15  1  0  0  0
 14 90  1  0  0  0
 14 91  1  0  0  0
 15 16  1  0  0  0
 15 92  1  0  0  0
 15 93  1  0  0  0
 16 17  1  0  0  0
 16 94  1  0  0  0
 16 95  1  0  0  0
 17 18  1  0  0  0
 17 96  1  0  0  0
 17 97  1  0  0  0
 18 98  1  0  0  0
 18 99  1  0  0  0
 19 18  1  0  0  0
 19100  1  0  0  0
 19101  1  0  0  0
 19102  1  0  0  0
 20 25  1  0  0  0
 21 22  2  0  0  0
 22 26  1  0  0  0
 22 45  1  0  0  0
 23103  1  0  0  0
 24 30  1  0  0  0
 25 31  2  0  0  0
 25104  1  0  0  0
 26105  1  0  0  0
 27 38  1  0  0  0
 27 50  1  0  0  0
 27 32  1  0  0  0
 28 23  1  0  0  0
 28 29  1  0  0  0
 28 33  1  0  0  0
 28106  1  0  0  0
 29107  1  0  0  0
 30 36  1  0  0  0
 30108  1  0  0  0
 30109  1  0  0  0
 32 22  1  0  0  0
 33 34  1  0  0  0
 33110  1  0  0  0
 34 35  1  0  0  0
 35 56  1  0  0  0
 36 41  1  0  0  0
 36111  1  0  0  0
 36112  1  0  0  0
 37 31  1  0  0  0
 38113  1  0  0  0
 39 33  1  0  0  0
 39114  1  0  0  0
 40 23  1  0  0  0
 40 39  1  0  0  0
 41115  1  0  0  0
 42 37  2  0  0  0
 43 27  2  0  0  0
 44 39  1  0  0  0
 44116  1  0  0  0
 44117  1  0  0  0
 45 44  1  0  0  0
 46 41  1  0  0  0
 46 51  1  0  0  0
 47 46  2  0  0  0
 48 20  2  0  0  0
 48 42  1  0  0  0
 49 48  1  0  0  0
 49118  1  0  0  0
 49119  1  0  0  0
 50 65  1  0  0  0
 51120  1  0  0  0
 51121  1  0  0  0
 52 42  1  0  0  0
 52 55  2  0  0  0
 53 35  1  0  0  0
 53122  1  0  0  0
 54 51  1  0  0  0
 54 57  1  0  0  0
 54123  1  0  0  0
 54124  1  0  0  0
 55 58  1  0  0  0
 55125  1  0  0  0
 56126  1  0  0  0
 57 60  1  0  0  0
 57127  1  0  0  0
 58 23  1  0  0  0
 58 37  1  0  0  0
 59 35  2  0  0  0
 60 61  2  0  0  0
 62 60  1  0  0  0
 62 64  1  0  0  0
 62128  1  0  0  0
 63 62  1  0  0  0
 63129  1  0  0  0
 64 65  1  0  0  0
 64 67  1  0  0  0
 65130  1  0  0  0
 65131  1  0  0  0
 66 64  1  0  0  0
 66132  1  0  0  0
 66133  1  0  0  0
 66134  1  0  0  0
 67135  1  0  0  0
 67136  1  0  0  0
 67137  1  0  0  0
M  END
$$$$
