STF
  CCTOOLS-0919241031

 26 27  0  0  1  0  0  0  0  0999 V2000
   -1.7940    1.0340   -0.3590 C   0  0  0  0  0
   -2.1100   -0.7770   -0.3540 S   0  0  0  0  0
   -3.8800   -0.6950   -0.1170 C   0  0  0  0  0
   -4.1290    0.6070   -0.0580 N   0  0  0  0  0
   -3.2190    1.5370   -0.1610 C   0  0  0  0  0
   -3.4890    2.7210   -0.1010 O   0  0  0  0  0
   -5.0250   -2.0290    0.0070 S   0  0  0  0  0
   -0.8890    1.4460    0.8040 C   0  0  0  0  0
    0.5090    0.9430    0.5540 C   0  0  0  0  0
    1.4160    1.7310   -0.1280 C   0  0  0  0  0
    2.6990    1.2700   -0.3570 C   0  0  0  0  0
    3.0750    0.0200    0.0990 C   0  0  0  0  0
    2.1670   -0.7710    0.7770 C   0  0  0  0  0
    0.8850   -0.3080    1.0080 C   0  0  0  0  0
    4.4740   -0.4830   -0.1500 C   0  0  0  0  0
    4.9630    0.0670   -1.3400 F   0  0  0  0  0
    4.4560   -1.8780   -0.2540 F   0  0  0  0  0
    5.3010   -0.1050    0.9130 F   0  0  0  0  0
   -1.3850    1.3630   -1.3140 H   0  0  0  0  0
   -6.2240   -1.3080    0.1810 H   0  0  0  0  0
   -0.8750    2.5330    0.8850 H   0  0  0  0  0
   -1.2700    1.0170    1.7300 H   0  0  0  0  0
    1.1230    2.7080   -0.4830 H   0  0  0  0  0
    3.4080    1.8860   -0.8900 H   0  0  0  0  0
    2.4600   -1.7480    1.1320 H   0  0  0  0  0
    0.1760   -0.9240    1.5420 H   0  0  0  0  0
  1  2  1  0  0  0
  1  5  1  0  0  0
  1  8  1  0  0  0
  1 19  1  0  0  0
  2  3  1  0  0  0
  3  4  2  0  0  0
  3  7  1  0  0  0
  4  5  1  0  0  0
  5  6  2  0  0  0
  7 20  1  0  0  0
  8  9  1  0  0  0
  8 21  1  0  0  0
  8 22  1  0  0  0
  9 10  2  0  0  0
  9 14  1  0  0  0
 10 11  1  0  0  0
 10 23  1  0  0  0
 11 12  2  0  0  0
 11 24  1  0  0  0
 12 13  1  0  0  0
 12 15  1  0  0  0
 13 14  2  0  0  0
 13 25  1  0  0  0
 14 26  1  0  0  0
 15 16  1  0  0  0
 15 17  1  0  0  0
 15 18  1  0  0  0
M  END
$$$$
