SU0
  CCTOOLS-0919241031

 43 45  0  0  0  0  0  0  0  0999 V2000
   -4.4460   -0.0180    0.0410 C   0  0  0  0  0
   -5.7170   -2.0520   -1.3090 N   0  0  0  0  0
   -6.8950   -0.6780    0.3700 O   0  0  0  0  0
   -5.9620   -0.5340   -0.6930 S   0  0  0  0  0
   -3.5100    0.6630   -0.7140 C   0  0  0  0  0
   -6.1800    0.3210   -1.8070 O   0  0  0  0  0
   -2.3210    1.0690   -0.1410 C   0  0  0  0  0
    0.2390    0.9210   -0.1260 O   0  0  0  0  0
   -2.0660    0.7930    1.1960 C   0  0  0  0  0
    4.5120    3.4800   -1.5090 O   0  0  0  0  0
   -3.0080    0.1090    1.9520 C   0  0  0  0  0
   -4.1980   -0.2900    1.3740 C   0  0  0  0  0
    0.2740    1.1990    1.0540 C   0  0  0  0  0
   -0.8620    1.2030    1.7790 N   0  0  0  0  0
    1.5870    1.5400    1.7090 C   0  0  0  0  0
    2.6930    1.4630    0.6880 C   0  0  0  0  0
    3.1110    2.5740    0.0270 C   0  0  0  0  0
    4.1480    2.4770   -0.9240 C   0  0  0  0  0
    4.7420    1.3050   -1.2000 O   0  0  0  0  0
    4.3740    0.1640   -0.5800 C   0  0  0  0  0
    4.9990   -1.0380   -0.8770 C   0  0  0  0  0
    4.6050   -2.1970   -0.2290 C   0  0  0  0  0
    3.5860   -2.1660    0.7210 C   0  0  0  0  0
    2.9610   -0.9920    1.0260 C   0  0  0  0  0
    3.3500    0.1900    0.3860 C   0  0  0  0  0
    5.2170   -3.3730   -0.5220 O   0  0  0  0  0
    4.7660   -4.5320    0.1820 C   0  0  0  0  0
    2.6500    3.5300    0.2300 H   0  0  0  0  0
    3.7080   -4.6930   -0.0250 H   0  0  0  0  0
    5.3360   -5.4010   -0.1460 H   0  0  0  0  0
    4.9090   -4.3860    1.2520 H   0  0  0  0  0
   -6.4400   -2.5150   -1.7600 H   0  0  0  0  0
   -3.7080    0.8770   -1.7540 H   0  0  0  0  0
   -1.5900    1.6010   -0.7320 H   0  0  0  0  0
    5.7890   -1.0700   -1.6130 H   0  0  0  0  0
   -2.8130   -0.1080    2.9920 H   0  0  0  0  0
   -4.9310   -0.8220    1.9620 H   0  0  0  0  0
    3.2890   -3.0770    1.2190 H   0  0  0  0  0
   -0.8450    1.4900    2.7050 H   0  0  0  0  0
    2.1720   -0.9740    1.7630 H   0  0  0  0  0
    1.5390    2.5500    2.1170 H   0  0  0  0  0
    1.7860    0.8330    2.5140 H   0  0  0  0  0
   -4.8500   -2.4770   -1.2200 H   0  0  0  0  0
  1  4  1  0  0  0
  2  4  1  0  0  0
  2 43  1  0  0  0
  3  4  2  0  0  0
  4  6  2  0  0  0
  5  1  1  0  0  0
  5 33  1  0  0  0
  7  5  2  0  0  0
  9  7  1  0  0  0
  9 11  2  0  0  0
 11 12  1  0  0  0
 12  1  2  0  0  0
 12 37  1  0  0  0
 13  8  2  0  0  0
 13 14  1  0  0  0
 14  9  1  0  0  0
 15 13  1  0  0  0
 15 16  1  0  0  0
 16 17  2  0  0  0
 17 28  1  0  0  0
 17 18  1  0  0  0
 18 10  2  0  0  0
 19 18  1  0  0  0
 20 19  1  0  0  0
 21 20  1  0  0  0
 21 35  1  0  0  0
 22 21  2  0  0  0
 23 22  1  0  0  0
 23 24  2  0  0  0
 24 25  1  0  0  0
 25 16  1  0  0  0
 25 20  2  0  0  0
 26 22  1  0  0  0
 26 27  1  0  0  0
 27 30  1  0  0  0
 29 27  1  0  0  0
 31 27  1  0  0  0
 32  2  1  0  0  0
 34  7  1  0  0  0
 36 11  1  0  0  0
 38 23  1  0  0  0
 39 14  1  0  0  0
 40 24  1  0  0  0
 41 15  1  0  0  0
 42 15  1  0  0  0
M  END
$$$$
