SUC
  CCTOOLS-0919241031

 45 46  0  0  1  0  0  0  0  0999 V2000
   -1.2200    0.7170   -1.0180 C   0  0  0  0  0
   -2.6750    1.0280   -0.6580 C   0  0  0  0  0
   -3.0390    0.2960    0.6370 C   0  0  0  0  0
   -2.7940   -1.2050    0.4490 C   0  0  0  0  0
   -1.3340   -1.4290    0.0470 C   0  0  0  0  0
   -1.0960   -2.9200   -0.2010 C   0  0  0  0  0
   -2.8310    2.4350   -0.4710 O   0  0  0  0  0
   -4.4170    0.5200    0.9420 O   0  0  0  0  0
   -3.0620   -1.8900    1.6750 O   0  0  0  0  0
   -1.0530   -0.6960   -1.1480 O   0  0  0  0  0
    0.2910   -3.1440   -0.4630 O   0  0  0  0  0
    1.2850    1.8950   -1.6280 C   0  0  0  0  0
    1.0310    1.1510   -0.3150 C   0  0  0  0  0
    1.8620    1.7860    0.8160 C   0  0  0  0  0
    2.8170    0.6540    1.2670 C   0  0  0  0  0
    2.8160   -0.2830    0.0320 C   0  0  0  0  0
    3.1810   -1.7120    0.4380 C   0  0  0  0  0
    0.6740    1.1810   -2.7050 O   0  0  0  0  0
   -0.3590    1.2060    0.0130 O   0  0  0  0  0
    1.0150    2.1850    1.8960 O   0  0  0  0  0
    4.1280    1.1630    1.5200 O   0  0  0  0  0
    1.4490   -0.2190   -0.4410 O   0  0  0  0  0
    3.2870   -2.5270   -0.7300 O   0  0  0  0  0
   -0.9680    1.2010   -1.9620 H   0  0  0  0  0
   -3.3290    0.6920   -1.4630 H   0  0  0  0  0
   -2.4200    0.6680    1.4530 H   0  0  0  0  0
   -3.4510   -1.5860   -0.3320 H   0  0  0  0  0
   -0.6790   -1.0840    0.8470 H   0  0  0  0  0
   -1.3960   -3.4870    0.6800 H   0  0  0  0  0
   -1.6850   -3.2440   -1.0590 H   0  0  0  0  0
   -2.6120    2.9630   -1.2510 H   0  0  0  0  0
   -4.6460    1.4510    1.0670 H   0  0  0  0  0
   -3.9690   -1.7870    1.9930 H   0  0  0  0  0
    0.5150   -4.0690   -0.6300 H   0  0  0  0  0
    0.8580    2.8960   -1.5670 H   0  0  0  0  0
    2.3580    1.9670   -1.8030 H   0  0  0  0  0
    2.4280    2.6380    0.4410 H   0  0  0  0  0
    2.4240    0.1400    2.1450 H   0  0  0  0  0
    3.5030    0.0860   -0.7300 H   0  0  0  0  0
    4.1350   -1.7070    0.9660 H   0  0  0  0  0
    2.4070   -2.1130    1.0920 H   0  0  0  0  0
    0.7950    1.5970   -3.5700 H   0  0  0  0  0
    1.4860    2.5910    2.6360 H   0  0  0  0  0
    4.7620    0.4910    1.8050 H   0  0  0  0  0
    3.5170   -3.4490   -0.5470 H   0  0  0  0  0
  1  2  1  0  0  0
  1 19  1  0  0  0
  1 24  1  0  0  0
  2  7  1  0  0  0
  2  3  1  0  0  0
  2 25  1  0  0  0
  3  8  1  0  0  0
  3 26  1  0  0  0
  4  3  1  0  0  0
  4  9  1  0  0  0
  4 27  1  0  0  0
  5  4  1  0  0  0
  5 28  1  0  0  0
  6  5  1  0  0  0
  6 29  1  0  0  0
  6 30  1  0  0  0
  7 31  1  0  0  0
  8 32  1  0  0  0
  9 33  1  0  0  0
 10  1  1  0  0  0
 10  5  1  0  0  0
 11  6  1  0  0  0
 11 34  1  0  0  0
 12 13  1  0  0  0
 12 35  1  0  0  0
 12 36  1  0  0  0
 13 19  1  0  0  0
 13 14  1  0  0  0
 14 20  1  0  0  0
 14 37  1  0  0  0
 15 14  1  0  0  0
 15 21  1  0  0  0
 15 38  1  0  0  0
 16 15  1  0  0  0
 16 39  1  0  0  0
 17 16  1  0  0  0
 17 40  1  0  0  0
 17 41  1  0  0  0
 18 12  1  0  0  0
 18 42  1  0  0  0
 20 43  1  0  0  0
 21 44  1  0  0  0
 22 16  1  0  0  0
 22 13  1  0  0  0
 23 17  1  0  0  0
 23 45  1  0  0  0
M  END
$$$$
