SW4
  CCTOOLS-0919241031

 38 40  0  0  1  0  0  0  0  0999 V2000
    6.5310   -2.2990    0.3650 O   0  0  0  0  0
    5.6010   -1.2960    0.7780 C   0  0  0  0  0
    4.6770   -0.9460   -0.3900 C   0  0  0  0  0
    3.6810    0.1280    0.0530 C   0  0  0  0  0
    3.7500    1.4870   -0.6470 C   0  0  0  0  0
    2.5910    0.5330   -0.9410 C   0  0  0  0  0
    1.2370    0.8900   -0.3820 C   0  0  0  0  0
    1.1030    1.9380    0.5090 C   0  0  0  0  0
   -0.0760    2.2580    1.0050 N   0  0  0  0  0
   -1.1700    1.6000    0.6750 C   0  0  0  0  0
   -1.1150    0.5360   -0.2130 C   0  0  0  0  0
   -2.2450   -0.1400   -0.5490 O   0  0  0  0  0
   -3.4660    0.2970    0.0510 C   0  0  0  0  0
   -4.6200   -0.5770   -0.4440 C   0  0  0  0  0
   -6.0030   -0.1150    0.0480 C   0  0  0  0  0
   -6.3080   -1.6050    0.2830 C   0  0  0  0  0
   -4.8430   -1.7890    0.3750 N   0  0  0  0  0
    0.1130    0.1750   -0.7600 C   0  0  0  0  0
    7.1500   -2.5710    1.0570 H   0  0  0  0  0
    5.0080   -1.6720    1.6110 H   0  0  0  0  0
    6.1440   -0.4050    1.0920 H   0  0  0  0  0
    5.2710   -0.5700   -1.2230 H   0  0  0  0  0
    4.1340   -1.8370   -0.7040 H   0  0  0  0  0
    3.4210    0.1200    1.1110 H   0  0  0  0  0
    3.5340    2.3730   -0.0500 H   0  0  0  0  0
    4.5050    1.6160   -1.4230 H   0  0  0  0  0
    2.5830    0.0340   -1.9100 H   0  0  0  0  0
    1.9760    2.5020    0.8040 H   0  0  0  0  0
    0.1870   -0.6460   -1.4580 H   0  0  0  0  0
   -2.1180    1.8910    1.1020 H   0  0  0  0  0
   -3.3870    0.2160    1.1350 H   0  0  0  0  0
   -3.6530    1.3360   -0.2220 H   0  0  0  0  0
   -4.5770   -0.7710   -1.5150 H   0  0  0  0  0
   -5.9680    0.4760    0.9640 H   0  0  0  0  0
   -6.6150    0.3410   -0.7300 H   0  0  0  0  0
   -4.5510   -2.6180   -0.1190 H   0  0  0  0  0
   -6.8350   -1.8040    1.2160 H   0  0  0  0  0
   -6.7600   -2.1010   -0.5760 H   0  0  0  0  0
  1  2  1  0  0  0
  1 19  1  0  0  0
  2  3  1  0  0  0
  2 20  1  0  0  0
  2 21  1  0  0  0
  3  4  1  0  0  0
  3 22  1  0  0  0
  3 23  1  0  0  0
  4  5  1  0  0  0
  4  6  1  0  0  0
  4 24  1  0  0  0
  5  6  1  0  0  0
  5 25  1  0  0  0
  5 26  1  0  0  0
  6  7  1  0  0  0
  6 27  1  0  0  0
  7  8  1  0  0  0
  7 18  2  0  0  0
  8  9  2  0  0  0
  8 28  1  0  0  0
  9 10  1  0  0  0
 10 11  2  0  0  0
 10 30  1  0  0  0
 11 12  1  0  0  0
 11 18  1  0  0  0
 12 13  1  0  0  0
 13 14  1  0  0  0
 13 31  1  0  0  0
 13 32  1  0  0  0
 14 15  1  0  0  0
 14 17  1  0  0  0
 14 33  1  0  0  0
 15 16  1  0  0  0
 15 34  1  0  0  0
 15 35  1  0  0  0
 16 17  1  0  0  0
 16 37  1  0  0  0
 16 38  1  0  0  0
 17 36  1  0  0  0
 18 29  1  0  0  0
M  END
$$$$
