SY9
  CCTOOLS-0919241031

 47 53  0  0  1  0  0  0  0  0999 V2000
   -0.1630   -2.0100   -0.6560 C   0  0  0  0  0
   -0.8440   -1.3590   -1.8420 C   0  0  0  0  0
   -1.7890   -0.2720   -1.2990 C   0  0  0  0  0
   -0.9280    0.7950   -0.6880 C   0  0  0  0  0
   -0.0880    0.3050    0.4790 C   0  0  0  0  0
    1.0580    1.2590    0.3880 N   0  0  0  0  0
    2.2040    0.5660    0.0760 C   0  0  0  0  0
    3.4930    1.0710   -0.1370 C   0  0  0  0  0
    4.4880    0.1660   -0.4660 C   0  0  0  0  0
    4.2350   -1.1860   -0.5840 C   0  0  0  0  0
    2.9640   -1.7040   -0.3670 C   0  0  0  0  0
    1.9660   -0.8090   -0.0300 C   0  0  0  0  0
    0.5250   -1.0690    0.3080 C   0  0  0  0  0
    0.5060   -1.8420    1.6530 C   0  0  0  0  0
   -0.4460   -3.0300    1.4380 C   0  0  0  0  0
   -1.1130   -2.8160    0.1230 N   0  0  0  0  0
   -2.3980   -2.1950    0.3960 C   0  0  0  0  0
   -2.6860   -0.8940   -0.2630 C   0  0  0  0  0
   -3.6950   -0.1690    0.1600 C   0  0  0  0  0
   -3.8090    1.2680   -0.2690 C   0  0  0  0  0
   -2.7540    1.9980    0.3640 O   0  0  0  0  0
   -1.5580    2.1340   -0.4110 C   0  0  0  0  0
   -0.6090    3.0840    0.3160 C   0  0  0  0  0
    0.8020    2.5830    0.4370 C   0  0  0  0  0
    1.7140    3.3700    0.5800 O   0  0  0  0  0
    0.5920   -2.6940   -1.0430 H   0  0  0  0  0
   -0.0970   -0.9070   -2.4950 H   0  0  0  0  0
   -1.4170   -2.1040   -2.3950 H   0  0  0  0  0
   -2.3800    0.1470   -2.1120 H   0  0  0  0  0
   -0.1920    1.0160   -1.4600 H   0  0  0  0  0
   -0.6220    0.4020    1.4250 H   0  0  0  0  0
   -1.8200    2.5930   -1.3640 H   0  0  0  0  0
    3.7030    2.1260   -0.0470 H   0  0  0  0  0
    5.4910    0.5280   -0.6350 H   0  0  0  0  0
    5.0400   -1.8540   -0.8510 H   0  0  0  0  0
    2.7640   -2.7610   -0.4600 H   0  0  0  0  0
    1.5060   -2.2010    1.8950 H   0  0  0  0  0
    0.1320   -1.2000    2.4510 H   0  0  0  0  0
    0.1190   -3.9620    1.4220 H   0  0  0  0  0
   -1.1900   -3.0600    2.2340 H   0  0  0  0  0
   -3.1780   -2.8970    0.1020 H   0  0  0  0  0
   -2.4760   -2.0470    1.4730 H   0  0  0  0  0
   -4.4400   -0.6010    0.8120 H   0  0  0  0  0
   -3.7080    1.3390   -1.3520 H   0  0  0  0  0
   -4.7740    1.6710    0.0390 H   0  0  0  0  0
   -0.5940    4.0330   -0.2190 H   0  0  0  0  0
   -0.9990    3.2630    1.3180 H   0  0  0  0  0
  1  2  1  0  0  0
  1 13  1  0  0  0
  1 16  1  0  0  0
  1 26  1  0  0  0
  2  3  1  0  0  0
  2 27  1  0  0  0
  2 28  1  0  0  0
  3  4  1  0  0  0
  3 18  1  0  0  0
  3 29  1  0  0  0
  4  5  1  0  0  0
  4 22  1  0  0  0
  4 30  1  0  0  0
  5  6  1  0  0  0
  5 13  1  0  0  0
  5 31  1  0  0  0
  6  7  1  0  0  0
  6 24  1  0  0  0
  7  8  1  0  0  0
  7 12  2  0  0  0
  8  9  2  0  0  0
  8 33  1  0  0  0
  9 10  1  0  0  0
  9 34  1  0  0  0
 10 11  2  0  0  0
 10 35  1  0  0  0
 11 12  1  0  0  0
 11 36  1  0  0  0
 12 13  1  0  0  0
 13 14  1  0  0  0
 14 15  1  0  0  0
 14 37  1  0  0  0
 14 38  1  0  0  0
 15 16  1  0  0  0
 15 39  1  0  0  0
 15 40  1  0  0  0
 16 17  1  0  0  0
 17 18  1  0  0  0
 17 41  1  0  0  0
 17 42  1  0  0  0
 18 19  2  0  0  0
 19 20  1  0  0  0
 19 43  1  0  0  0
 20 21  1  0  0  0
 20 44  1  0  0  0
 20 45  1  0  0  0
 21 22  1  0  0  0
 22 23  1  0  0  0
 22 32  1  0  0  0
 23 24  1  0  0  0
 23 46  1  0  0  0
 23 47  1  0  0  0
 24 25  2  0  0  0
M  END
$$$$
