T08
  CCTOOLS-0919241032

 69 70  0  0  1  0  0  0  0  0999 V2000
   -6.7710   -0.5970   -1.5100 O   0  0  0  0  0
   -6.0860   -1.4110   -0.5560 C   0  0  0  0  0
   -7.0670   -1.8630    0.5270 C   0  0  0  0  0
   -8.1980   -2.6700   -0.1130 C   0  0  0  0  0
   -6.3330   -2.7340    1.5480 C   0  0  0  0  0
   -7.6510   -0.6360    1.2310 C   0  0  0  0  0
   -4.9550   -0.6040    0.0840 C   0  0  0  0  0
   -3.9790   -0.2810   -0.9080 O   0  0  0  0  0
   -2.9010    0.4400   -0.5020 C   0  0  0  0  0
   -2.7810    0.8230    0.8260 C   0  0  0  0  0
   -1.6810    1.5500    1.2380 C   0  0  0  0  0
   -1.9140    0.7880   -1.4130 C   0  0  0  0  0
   -2.0370    0.3690   -2.8550 C   0  0  0  0  0
   -0.8190    1.5200   -0.9980 C   0  0  0  0  0
   -0.7000    1.8960    0.3280 C   0  0  0  0  0
    0.4990    2.6900    0.7800 C   0  0  0  0  0
    0.5380    4.0240    0.0330 C   0  0  0  0  0
    0.4010    2.9500    2.2840 C   0  0  0  0  0
    1.7560    1.9120    0.4860 C   0  0  0  0  0
    2.7690    2.4930   -0.2550 C   0  0  0  0  0
    3.9220    1.7820   -0.5260 C   0  0  0  0  0
    5.0260    2.4160   -1.3330 C   0  0  0  0  0
    1.8970    0.6220    0.9620 C   0  0  0  0  0
    3.0490   -0.0930    0.6940 C   0  0  0  0  0
    4.0640    0.4850   -0.0530 C   0  0  0  0  0
    5.1980   -0.2150   -0.3180 O   0  0  0  0  0
    5.2770   -1.5430    0.2060 C   0  0  0  0  0
    6.6150   -2.1690   -0.1920 C   0  0  0  0  0
    7.6810   -1.4520    0.4340 O   0  0  0  0  0
    6.6490   -3.6300    0.2610 C   0  0  0  0  0
    7.8490   -4.2470   -0.2120 O   0  0  0  0  0
   -7.1680    0.2010   -1.1330 H   0  0  0  0  0
   -5.6700   -2.2850   -1.0570 H   0  0  0  0  0
   -7.7820   -3.5440   -0.6140 H   0  0  0  0  0
   -8.8970   -2.9920    0.6590 H   0  0  0  0  0
   -8.7210   -2.0490   -0.8400 H   0  0  0  0  0
   -5.5270   -2.1590    2.0050 H   0  0  0  0  0
   -7.0320   -3.0560    2.3200 H   0  0  0  0  0
   -5.9170   -3.6090    1.0480 H   0  0  0  0  0
   -8.1740   -0.0150    0.5030 H   0  0  0  0  0
   -8.3500   -0.9580    2.0030 H   0  0  0  0  0
   -6.8450   -0.0610    1.6870 H   0  0  0  0  0
   -5.3590    0.3150    0.5080 H   0  0  0  0  0
   -4.4890   -1.1940    0.8740 H   0  0  0  0  0
   -3.5480    0.5530    1.5370 H   0  0  0  0  0
   -1.5880    1.8490    2.2720 H   0  0  0  0  0
   -2.5690    1.1390   -3.4140 H   0  0  0  0  0
   -1.0430    0.2330   -3.2810 H   0  0  0  0  0
   -2.5890   -0.5700   -2.9150 H   0  0  0  0  0
   -0.0510    1.7920   -1.7060 H   0  0  0  0  0
   -0.3710    4.5870    0.2460 H   0  0  0  0  0
    1.4050    4.5980    0.3600 H   0  0  0  0  0
    0.6080    3.8390   -1.0390 H   0  0  0  0  0
    0.3730    1.9990    2.8170 H   0  0  0  0  0
    1.2680    3.5240    2.6110 H   0  0  0  0  0
   -0.5090    3.5120    2.4970 H   0  0  0  0  0
    2.6580    3.5020   -0.6230 H   0  0  0  0  0
    5.7170    2.9290   -0.6640 H   0  0  0  0  0
    5.5620    1.6430   -1.8850 H   0  0  0  0  0
    4.5990    3.1330   -2.0330 H   0  0  0  0  0
    1.1060    0.1720    1.5440 H   0  0  0  0  0
    3.1580   -1.1000    1.0670 H   0  0  0  0  0
    5.2000   -1.5100    1.2920 H   0  0  0  0  0
    4.4610   -2.1420   -0.1990 H   0  0  0  0  0
    6.7320   -2.1210   -1.2750 H   0  0  0  0  0
    7.6420   -1.4520    1.4000 H   0  0  0  0  0
    6.6220   -3.6740    1.3490 H   0  0  0  0  0
    5.7860   -4.1560   -0.1460 H   0  0  0  0  0
    7.9380   -5.1770    0.0380 H   0  0  0  0  0
  1 32  1  0  0  0
  2  1  1  0  0  0
  2 33  1  0  0  0
  3  2  1  0  0  0
  3  4  1  0  0  0
  4 34  1  0  0  0
  4 35  1  0  0  0
  4 36  1  0  0  0
  5  3  1  0  0  0
  5 37  1  0  0  0
  5 38  1  0  0  0
  5 39  1  0  0  0
  6  3  1  0  0  0
  6 40  1  0  0  0
  6 41  1  0  0  0
  6 42  1  0  0  0
  7  8  1  0  0  0
  7  2  1  0  0  0
  7 43  1  0  0  0
  7 44  1  0  0  0
  9 12  1  0  0  0
  9  8  1  0  0  0
 10  9  2  0  0  0
 10 45  1  0  0  0
 11 15  2  0  0  0
 11 10  1  0  0  0
 11 46  1  0  0  0
 12 13  1  0  0  0
 13 47  1  0  0  0
 13 48  1  0  0  0
 13 49  1  0  0  0
 14 12  2  0  0  0
 14 50  1  0  0  0
 15 14  1  0  0  0
 16 15  1  0  0  0
 16 18  1  0  0  0
 17 16  1  0  0  0
 17 51  1  0  0  0
 17 52  1  0  0  0
 17 53  1  0  0  0
 18 54  1  0  0  0
 18 55  1  0  0  0
 18 56  1  0  0  0
 19 16  1  0  0  0
 20 19  1  0  0  0
 20 57  1  0  0  0
 21 20  2  0  0  0
 22 21  1  0  0  0
 22 58  1  0  0  0
 22 59  1  0  0  0
 22 60  1  0  0  0
 23 19  2  0  0  0
 23 61  1  0  0  0
 24 23  1  0  0  0
 24 62  1  0  0  0
 25 24  2  0  0  0
 25 21  1  0  0  0
 26 25  1  0  0  0
 27 26  1  0  0  0
 27 63  1  0  0  0
 27 64  1  0  0  0
 28 27  1  0  0  0
 28 65  1  0  0  0
 29 28  1  0  0  0
 29 66  1  0  0  0
 30 28  1  0  0  0
 30 67  1  0  0  0
 30 68  1  0  0  0
 31 30  1  0  0  0
 31 69  1  0  0  0
M  END
$$$$
