T21
  CCTOOLS-0919241032

 28 30  0  0  0  0  0  0  0  0999 V2000
   -4.8290   -1.7810    0.0070 C   0  0  0  0  0
   -1.9000    1.2030   -0.0010 C   0  0  0  0  0
   -3.5050   -2.0400    0.0010 C   0  0  0  0  0
   -3.0750    0.3370   -0.0020 C   0  0  0  0  0
    4.0380   -0.7400   -0.0000 C   0  0  0  0  0
    3.2320    1.6300    0.0030 C   0  0  0  0  0
    2.2190    2.5720    0.0030 C   0  0  0  0  0
    0.8990    2.1720    0.0020 C   0  0  0  0  0
    0.5860    0.8110   -0.0000 C   0  0  0  0  0
    3.9350   -1.5400   -1.1440 F   0  0  0  0  0
    3.9350   -1.5430    1.1410 F   0  0  0  0  0
    5.2740   -0.0850    0.0010 F   0  0  0  0  0
    2.9280    0.2790    0.0010 C   0  0  0  0  0
    1.6130   -0.1350   -0.0010 C   0  0  0  0  0
   -0.8250    0.3750   -0.0020 C   0  0  0  0  0
   -4.4720    0.5540   -0.0020 C   0  0  0  0  0
   -4.9170    1.6890   -0.0020 O   0  0  0  0  0
   -5.3070   -0.5040    0.0020 N   0  0  0  0  0
   -1.2420   -0.9080   -0.0030 O   0  0  0  0  0
   -2.5830   -0.9750   -0.0030 C   0  0  0  0  0
   -5.5270   -2.6050    0.0100 H   0  0  0  0  0
   -1.8890    2.2830    0.0010 H   0  0  0  0  0
   -3.1530   -3.0610    0.0010 H   0  0  0  0  0
    4.2640    1.9490   -0.0000 H   0  0  0  0  0
    2.4630    3.6250    0.0050 H   0  0  0  0  0
    0.1100    2.9090    0.0020 H   0  0  0  0  0
    1.3780   -1.1890   -0.0030 H   0  0  0  0  0
   -6.2660   -0.3550    0.0020 H   0  0  0  0  0
  1 21  1  0  0  0
  2  4  1  0  0  0
  2 22  1  0  0  0
  3  1  2  0  0  0
  3 23  1  0  0  0
  4 20  2  0  0  0
  4 16  1  0  0  0
  5 13  1  0  0  0
  5 12  1  0  0  0
  5 11  1  0  0  0
  6  7  2  0  0  0
  6 13  1  0  0  0
  6 24  1  0  0  0
  7  8  1  0  0  0
  7 25  1  0  0  0
  8  9  2  0  0  0
  8 26  1  0  0  0
  9 15  1  0  0  0
 10  5  1  0  0  0
 13 14  2  0  0  0
 14  9  1  0  0  0
 14 27  1  0  0  0
 15  2  2  0  0  0
 15 19  1  0  0  0
 16 18  1  0  0  0
 17 16  2  0  0  0
 18  1  1  0  0  0
 18 28  1  0  0  0
 19 20  1  0  0  0
 20  3  1  0  0  0
M  END
$$$$
