T3O
  CCTOOLS-0919241032

 41 43  0  0  1  0  0  0  0  0999 V2000
    1.1350    0.3130    1.5650 C   0  0  0  0  0
    0.9960    1.2520    0.3630 C   0  0  0  0  0
    2.3710    1.6060   -0.1500 C   0  0  0  0  0
    2.5440    2.8750   -0.9430 C   0  0  0  0  0
    3.4080    0.8590    0.0540 C   0  0  0  0  0
    3.3880   -0.4170    0.8420 C   0  0  0  0  0
    1.9670   -0.8920    1.0980 C   0  0  0  0  0
    1.2990   -1.5610   -0.0860 C   0  0  0  0  0
    2.2800   -2.5780   -0.7080 C   0  0  0  0  0
    0.1160   -2.3980    0.4380 C   0  0  0  0  0
    0.8700   -0.7020   -1.1060 O   0  0  0  0  0
    0.2650    0.5120   -0.7620 C   0  0  0  0  0
   -1.2030    0.3820   -0.4460 C   0  0  0  0  0
   -1.9000   -0.7390   -0.8590 C   0  0  0  0  0
   -3.2450   -0.8630   -0.5660 C   0  0  0  0  0
   -3.8970    0.1420    0.1340 C   0  0  0  0  0
   -5.2210    0.0240    0.4190 O   0  0  0  0  0
   -3.1960    1.2670    0.5420 C   0  0  0  0  0
   -1.8510    1.3850    0.2510 C   0  0  0  0  0
    0.1640   -0.0100    1.9280 H   0  0  0  0  0
    1.6680    0.8240    2.3740 H   0  0  0  0  0
    0.4540    2.1620    0.6450 H   0  0  0  0  0
    3.5860    2.9770   -1.2440 H   0  0  0  0  0
    1.9120    2.8380   -1.8310 H   0  0  0  0  0
    2.2570    3.7290   -0.3290 H   0  0  0  0  0
    4.3490    1.1740   -0.3700 H   0  0  0  0  0
    4.0000   -1.1620    0.3570 H   0  0  0  0  0
    3.8520   -0.2050    1.8200 H   0  0  0  0  0
    1.9950   -1.6150    1.9260 H   0  0  0  0  0
    3.1300   -2.0470   -1.1370 H   0  0  0  0  0
    2.6320   -3.2620    0.0640 H   0  0  0  0  0
    1.7720   -3.1420   -1.4900 H   0  0  0  0  0
   -0.3670   -2.9070   -0.3960 H   0  0  0  0  0
    0.4800   -3.1360    1.1520 H   0  0  0  0  0
   -0.6040   -1.7420    0.9290 H   0  0  0  0  0
    0.3190    1.1720   -1.6640 H   0  0  0  0  0
   -1.3920   -1.5200   -1.4040 H   0  0  0  0  0
   -3.7880   -1.7410   -0.8840 H   0  0  0  0  0
   -5.7020    0.4190   -0.3210 H   0  0  0  0  0
   -3.7020    2.0510    1.0870 H   0  0  0  0  0
   -1.3050    2.2610    0.5680 H   0  0  0  0  0
  1  2  1  0  0  0
  1  7  1  0  0  0
  1 20  1  0  0  0
  1 21  1  0  0  0
  2  3  1  0  0  0
  2 12  1  0  0  0
  2 22  1  0  0  0
  3  4  1  0  0  0
  3  5  2  0  0  0
  4 23  1  0  0  0
  4 24  1  0  0  0
  4 25  1  0  0  0
  5  6  1  0  0  0
  5 26  1  0  0  0
  6  7  1  0  0  0
  6 27  1  0  0  0
  6 28  1  0  0  0
  7  8  1  0  0  0
  7 29  1  0  0  0
  8  9  1  0  0  0
  8 10  1  0  0  0
  8 11  1  0  0  0
  9 30  1  0  0  0
  9 31  1  0  0  0
  9 32  1  0  0  0
 10 33  1  0  0  0
 10 34  1  0  0  0
 10 35  1  0  0  0
 11 12  1  0  0  0
 12 13  1  0  0  0
 12 36  1  0  0  0
 13 14  1  0  0  0
 13 19  2  0  0  0
 14 15  2  0  0  0
 14 37  1  0  0  0
 15 16  1  0  0  0
 15 38  1  0  0  0
 16 17  1  0  0  0
 16 18  2  0  0  0
 17 39  1  0  0  0
 18 19  1  0  0  0
 18 40  1  0  0  0
 19 41  1  0  0  0
M  END
$$$$
