T55
  CCTOOLS-0919241032

 32 31  0  0  0  0  0  0  0  0999 V2000
   -4.5930    1.2580    0.7000 C   0  0  0  0  0
   -4.4310    0.1060   -0.2940 C   0  0  0  0  0
   -3.1220   -0.6340   -0.0070 C   0  0  0  0  0
   -1.9400    0.2990   -0.2730 C   0  0  0  0  0
   -0.6320   -0.4400    0.0140 C   0  0  0  0  0
    0.5510    0.4930   -0.2510 C   0  0  0  0  0
    1.8590   -0.2460    0.0350 C   0  0  0  0  0
    3.0420    0.6870   -0.2300 C   0  0  0  0  0
   -5.6060   -0.8630   -0.1490 C   0  0  0  0  0
    4.3310   -0.0410    0.0520 C   0  0  0  0  0
    4.3060   -1.1890    0.4270 O   0  0  0  0  0
    5.5060    0.5850   -0.1130 O   0  0  0  0  0
    6.3060    0.0770    0.0810 H   0  0  0  0  0
    3.0260    1.0070   -1.2720 H   0  0  0  0  0
    2.9680    1.5600    0.4180 H   0  0  0  0  0
    1.8750   -0.5660    1.0770 H   0  0  0  0  0
    1.9330   -1.1190   -0.6130 H   0  0  0  0  0
    0.5350    0.8130   -1.2930 H   0  0  0  0  0
    0.4780    1.3660    0.3970 H   0  0  0  0  0
   -0.6160   -0.7600    1.0560 H   0  0  0  0  0
   -0.5580   -1.3130   -0.6350 H   0  0  0  0  0
   -1.9560    0.6190   -1.3150 H   0  0  0  0  0
   -2.0130    1.1730    0.3760 H   0  0  0  0  0
   -3.1060   -0.9530    1.0350 H   0  0  0  0  0
   -3.0490   -1.5070   -0.6560 H   0  0  0  0  0
   -4.4090    0.5020   -1.3090 H   0  0  0  0  0
   -5.5250    1.7850    0.4950 H   0  0  0  0  0
   -4.6150    0.8620    1.7150 H   0  0  0  0  0
   -3.7560    1.9470    0.5970 H   0  0  0  0  0
   -6.5380   -0.3360   -0.3530 H   0  0  0  0  0
   -5.4900   -1.6830   -0.8570 H   0  0  0  0  0
   -5.6280   -1.2590    0.8660 H   0  0  0  0  0
  1 27  1  0  0  0
  1 28  1  0  0  0
  1 29  1  0  0  0
  2  1  1  0  0  0
  2  9  1  0  0  0
  2 26  1  0  0  0
  3  2  1  0  0  0
  3 24  1  0  0  0
  3 25  1  0  0  0
  4  3  1  0  0  0
  4 22  1  0  0  0
  4 23  1  0  0  0
  5  4  1  0  0  0
  5 20  1  0  0  0
  5 21  1  0  0  0
  6  5  1  0  0  0
  6 18  1  0  0  0
  6 19  1  0  0  0
  7  6  1  0  0  0
  7 16  1  0  0  0
  7 17  1  0  0  0
  8 10  1  0  0  0
  8  7  1  0  0  0
  8 14  1  0  0  0
  8 15  1  0  0  0
  9 30  1  0  0  0
  9 31  1  0  0  0
  9 32  1  0  0  0
 10 11  2  0  0  0
 12 10  1  0  0  0
 12 13  1  0  0  0
M  END
$$$$
