T5E
  CCTOOLS-0919241032

146153  0  0  0  0  0  0  0  0999 V2000
    9.1960    9.9690    0.1470 C   0  0  0  0  0
  -10.4640    8.8480    0.1130 C   0  0  0  0  0
   10.4640   -8.9090   -0.1600 C   0  0  0  0  0
   -9.1600   -8.2140    1.1670 C   0  0  0  0  0
   -0.3840   -4.0440   -1.0570 O   0  0  0  0  0
    0.3830    3.9800    1.0140 O   0  0  0  0  0
   -3.8500   -1.2770   -0.9640 O   0  0  0  0  0
    3.8490    1.2130    0.9200 O   0  0  0  0  0
    1.4670   -2.0640   -0.2710 C   0  0  0  0  0
   -1.4690    2.0010    0.2280 C   0  0  0  0  0
   -5.7370    2.4970   -0.2550 C   0  0  0  0  0
    5.7360   -2.5600    0.2110 C   0  0  0  0  0
   -6.3260    3.8580    0.1220 C   0  0  0  0  0
    6.3260   -3.9200   -0.1660 C   0  0  0  0  0
   -4.4700   -5.6170   -0.6190 C   0  0  0  0  0
    4.4690    5.5540    0.5690 C   0  0  0  0  0
   -3.5470   -4.4760   -0.1880 C   0  0  0  0  0
    3.5450    4.4120    0.1400 C   0  0  0  0  0
   -4.2330    2.4970    0.0260 C   0  0  0  0  0
    4.2320   -2.5600   -0.0700 C   0  0  0  0  0
   -7.8310    3.8580   -0.1600 C   0  0  0  0  0
    7.8300   -3.9200    0.1150 C   0  0  0  0  0
   -5.0100   -6.3320    0.6210 C   0  0  0  0  0
    5.0060    6.2690   -0.6720 C   0  0  0  0  0
   -8.4300    7.5760   -0.2180 C   0  0  0  0  0
  -10.4150    6.4820    0.6300 C   0  0  0  0  0
   10.4150   -6.5430   -0.6770 C   0  0  0  0  0
    8.4290   -7.6380    0.1720 C   0  0  0  0  0
   -7.9630   -8.0790   -0.9330 C   0  0  0  0  0
   -7.1030   -9.4550    0.8630 C   0  0  0  0  0
    7.9610    8.0180    0.8780 C   0  0  0  0  0
    7.0990    9.3920   -0.9180 C   0  0  0  0  0
   -7.8800    6.2230   -0.6770 C   0  0  0  0  0
   -9.8650    5.1290    0.1720 C   0  0  0  0  0
    9.8650   -5.1910   -0.2180 C   0  0  0  0  0
    7.8790   -6.2860    0.6310 C   0  0  0  0  0
   -7.1060   -6.9080   -0.4470 C   0  0  0  0  0
   -6.2460   -8.2840    1.3490 C   0  0  0  0  0
    7.1040    6.8460    0.3930 C   0  0  0  0  0
    6.2410    8.2200   -1.4030 C   0  0  0  0  0
   -3.0070   -3.7600   -1.4280 C   0  0  0  0  0
    3.0070    3.6970    1.3800 C   0  0  0  0  0
   -3.6690    1.1940   -0.3340 N   0  0  0  0  0
    3.6680   -1.2570    0.2910 N   0  0  0  0  0
   -2.3150    0.9550   -0.1670 C   0  0  0  0  0
    2.3140   -1.0180    0.1240 C   0  0  0  0  0
   -0.8100   -2.9230   -0.8570 C   0  0  0  0  0
    0.8090    2.8600    0.8130 C   0  0  0  0  0
   -2.6560   -1.4480   -0.8070 C   0  0  0  0  0
    2.6550    1.3850    0.7630 C   0  0  0  0  0
    0.1120   -1.8490   -0.4420 C   0  0  0  0  0
   -0.1130    1.7860    0.4000 C   0  0  0  0  0
   -1.8050   -0.3240   -0.3920 C   0  0  0  0  0
    1.8040    0.2610    0.3490 C   0  0  0  0  0
   -0.4210   -0.5570   -0.2180 C   0  0  0  0  0
    0.4200    0.4930    0.1760 C   0  0  0  0  0
   -9.8980    7.5410   -0.2490 N   0  0  0  0  0
    9.8980   -7.6030    0.2020 N   0  0  0  0  0
   -8.3120   -8.9350    0.2090 N   0  0  0  0  0
    8.3090    8.8730   -0.2660 N   0  0  0  0  0
   -8.3960    5.1640    0.2020 N   0  0  0  0  0
    8.3960   -5.2270   -0.2480 N   0  0  0  0  0
   -5.8970   -7.4280    0.2060 N   0  0  0  0  0
    5.8930    7.3650   -0.2590 N   0  0  0  0  0
   -2.1230   -2.6670   -1.0150 N   0  0  0  0  0
    2.1220    2.6040    0.9690 N   0  0  0  0  0
    8.6710   10.6160    0.8490 H   0  0  0  0  0
   10.0840    9.5560    0.6280 H   0  0  0  0  0
    9.4920   10.5460   -0.7280 H   0  0  0  0  0
  -10.1970    9.0870    1.1420 H   0  0  0  0  0
  -10.0640    9.6130   -0.5530 H   0  0  0  0  0
  -11.5490    8.8130    0.0170 H   0  0  0  0  0
   11.5490   -8.8740   -0.0650 H   0  0  0  0  0
   10.0650   -9.6750    0.5050 H   0  0  0  0  0
   10.1970   -9.1480   -1.1900 H   0  0  0  0  0
   -8.6030   -7.3770    1.5880 H   0  0  0  0  0
  -10.0480   -7.8400    0.6570 H   0  0  0  0  0
   -9.4590   -8.8900    1.9680 H   0  0  0  0  0
    1.8780   -3.0480   -0.4450 H   0  0  0  0  0
   -1.8790    2.9850    0.3980 H   0  0  0  0  0
   -6.2170    1.7170    0.3360 H   0  0  0  0  0
   -5.9090    2.3070   -1.3150 H   0  0  0  0  0
    5.9080   -2.3710    1.2710 H   0  0  0  0  0
    6.2160   -1.7800   -0.3800 H   0  0  0  0  0
   -6.1550    4.0470    1.1810 H   0  0  0  0  0
   -5.8460    4.6370   -0.4700 H   0  0  0  0  0
    5.8460   -4.7010    0.4250 H   0  0  0  0  0
    6.1540   -4.1100   -1.2260 H   0  0  0  0  0
   -5.3020   -5.2130   -1.1960 H   0  0  0  0  0
   -3.9120   -6.3240   -1.2330 H   0  0  0  0  0
    3.9110    6.2610    1.1830 H   0  0  0  0  0
    5.3010    5.1500    1.1450 H   0  0  0  0  0
   -4.1050   -3.7690    0.4260 H   0  0  0  0  0
   -2.7150   -4.8800    0.3890 H   0  0  0  0  0
    2.7120    4.8160   -0.4370 H   0  0  0  0  0
    4.1020    3.7050   -0.4740 H   0  0  0  0  0
   -3.7530    3.2770   -0.5650 H   0  0  0  0  0
   -4.0620    2.6860    1.0860 H   0  0  0  0  0
    4.0610   -2.7490   -1.1290 H   0  0  0  0  0
    3.7530   -3.3400    0.5210 H   0  0  0  0  0
   -8.0020    3.6680   -1.2190 H   0  0  0  0  0
   -8.3110    3.0780    0.4310 H   0  0  0  0  0
    8.3100   -3.1400   -0.4760 H   0  0  0  0  0
    8.0020   -3.7310    1.1740 H   0  0  0  0  0
   -4.1780   -6.7360    1.1980 H   0  0  0  0  0
   -5.5680   -5.6250    1.2340 H   0  0  0  0  0
    5.5640    5.5620   -1.2860 H   0  0  0  0  0
    4.1740    6.6730   -1.2480 H   0  0  0  0  0
   -8.0920    7.7800    0.7980 H   0  0  0  0  0
   -8.0710    8.3590   -0.8860 H   0  0  0  0  0
  -11.5040    6.4680    0.5800 H   0  0  0  0  0
  -10.1000    6.6750    1.6550 H   0  0  0  0  0
   10.0990   -6.7350   -1.7020 H   0  0  0  0  0
   11.5030   -6.5290   -0.6270 H   0  0  0  0  0
    8.0710   -8.4220    0.8390 H   0  0  0  0  0
    8.0910   -7.8430   -0.8440 H   0  0  0  0  0
   -8.8740   -7.6960   -1.3930 H   0  0  0  0  0
   -7.4030   -8.6600   -1.6660 H   0  0  0  0  0
   -6.5330  -10.0520    0.1510 H   0  0  0  0  0
   -7.3870  -10.0760    1.7120 H   0  0  0  0  0
    7.4020    8.5990    1.6100 H   0  0  0  0  0
    8.8730    7.6350    1.3370 H   0  0  0  0  0
    7.3830   10.0120   -1.7690 H   0  0  0  0  0
    6.5300    9.9900   -0.2060 H   0  0  0  0  0
   -8.1950    6.0310   -1.7020 H   0  0  0  0  0
   -6.7910    6.2380   -0.6280 H   0  0  0  0  0
  -10.2240    4.3450    0.8390 H   0  0  0  0  0
  -10.2030    4.9240   -0.8440 H   0  0  0  0  0
   10.2030   -4.9870    0.7980 H   0  0  0  0  0
   10.2230   -4.4070   -0.8850 H   0  0  0  0  0
    6.7910   -6.3000    0.5810 H   0  0  0  0  0
    8.1950   -6.0940    1.6560 H   0  0  0  0  0
   -6.8210   -6.2880   -1.2980 H   0  0  0  0  0
   -7.6760   -6.3110    0.2640 H   0  0  0  0  0
   -6.8060   -7.7020    2.0810 H   0  0  0  0  0
   -5.3340   -8.6660    1.8080 H   0  0  0  0  0
    7.6730    6.2490   -0.3190 H   0  0  0  0  0
    6.8210    6.2260    1.2440 H   0  0  0  0  0
    5.3290    8.6030   -1.8620 H   0  0  0  0  0
    6.8000    7.6380   -2.1350 H   0  0  0  0  0
   -2.4490   -4.4670   -2.0410 H   0  0  0  0  0
   -3.8390   -3.3560   -2.0050 H   0  0  0  0  0
    3.8390    3.2940    1.9570 H   0  0  0  0  0
    2.4490    4.4050    1.9940 H   0  0  0  0  0
   -4.2440    0.4980   -0.6910 H   0  0  0  0  0
    4.2430   -0.5620    0.6480 H   0  0  0  0  0
  1 67  1  0  0  0
  1 68  1  0  0  0
  1 69  1  0  0  0
  2 70  1  0  0  0
  2 71  1  0  0  0
  2 72  1  0  0  0
  3 58  1  0  0  0
  3 73  1  0  0  0
  3 74  1  0  0  0
  3 75  1  0  0  0
  4 76  1  0  0  0
  4 77  1  0  0  0
  4 78  1  0  0  0
  5 47  2  0  0  0
  8 50  2  0  0  0
  9 51  2  0  0  0
  9 46  1  0  0  0
  9 79  1  0  0  0
 10 80  1  0  0  0
 11 19  1  0  0  0
 11 13  1  0  0  0
 11 81  1  0  0  0
 11 82  1  0  0  0
 12 20  1  0  0  0
 12 83  1  0  0  0
 12 84  1  0  0  0
 13 85  1  0  0  0
 13 86  1  0  0  0
 14 12  1  0  0  0
 14 87  1  0  0  0
 14 88  1  0  0  0
 15 17  1  0  0  0
 15 89  1  0  0  0
 15 90  1  0  0  0
 16 24  1  0  0  0
 16 91  1  0  0  0
 16 92  1  0  0  0
 17 41  1  0  0  0
 17 93  1  0  0  0
 17 94  1  0  0  0
 18 16  1  0  0  0
 18 95  1  0  0  0
 18 96  1  0  0  0
 19 97  1  0  0  0
 19 98  1  0  0  0
 20 44  1  0  0  0
 20 99  1  0  0  0
 20100  1  0  0  0
 21 13  1  0  0  0
 21 61  1  0  0  0
 21101  1  0  0  0
 21102  1  0  0  0
 22 14  1  0  0  0
 22103  1  0  0  0
 22104  1  0  0  0
 23 15  1  0  0  0
 23105  1  0  0  0
 23106  1  0  0  0
 24 64  1  0  0  0
 24107  1  0  0  0
 24108  1  0  0  0
 25109  1  0  0  0
 25110  1  0  0  0
 26 57  1  0  0  0
 26111  1  0  0  0
 26112  1  0  0  0
 27 35  1  0  0  0
 27 58  1  0  0  0
 27113  1  0  0  0
 27114  1  0  0  0
 28 36  1  0  0  0
 28115  1  0  0  0
 28116  1  0  0  0
 29117  1  0  0  0
 29118  1  0  0  0
 30 59  1  0  0  0
 30119  1  0  0  0
 30120  1  0  0  0
 31121  1  0  0  0
 31122  1  0  0  0
 32 60  1  0  0  0
 32123  1  0  0  0
 32124  1  0  0  0
 33 25  1  0  0  0
 33125  1  0  0  0
 33126  1  0  0  0
 34 26  1  0  0  0
 34 61  1  0  0  0
 34127  1  0  0  0
 34128  1  0  0  0
 35 62  1  0  0  0
 35129  1  0  0  0
 35130  1  0  0  0
 36131  1  0  0  0
 36132  1  0  0  0
 37 29  1  0  0  0
 37133  1  0  0  0
 37134  1  0  0  0
 38 30  1  0  0  0
 38 63  1  0  0  0
 38135  1  0  0  0
 38136  1  0  0  0
 39 31  1  0  0  0
 39137  1  0  0  0
 39138  1  0  0  0
 40 32  1  0  0  0
 40 64  1  0  0  0
 40139  1  0  0  0
 40140  1  0  0  0
 41 65  1  0  0  0
 41141  1  0  0  0
 41142  1  0  0  0
 42 18  1  0  0  0
 42143  1  0  0  0
 42144  1  0  0  0
 43 19  1  0  0  0
 43145  1  0  0  0
 44 46  1  0  0  0
 44146  1  0  0  0
 45 10  2  0  0  0
 45 43  1  0  0  0
 46 54  2  0  0  0
 47 65  1  0  0  0
 47 51  1  0  0  0
 48  6  2  0  0  0
 49  7  2  0  0  0
 49 53  1  0  0  0
 50 66  1  0  0  0
 51 55  1  0  0  0
 52 10  1  0  0  0
 52 48  1  0  0  0
 53 45  1  0  0  0
 54 50  1  0  0  0
 54 56  1  0  0  0
 55 53  2  0  0  0
 55 56  1  0  0  0
 56 52  2  0  0  0
 57  2  1  0  0  0
 57 25  1  0  0  0
 58 28  1  0  0  0
 59  4  1  0  0  0
 59 29  1  0  0  0
 60  1  1  0  0  0
 60 31  1  0  0  0
 61 33  1  0  0  0
 62 22  1  0  0  0
 62 36  1  0  0  0
 63 23  1  0  0  0
 63 37  1  0  0  0
 64 39  1  0  0  0
 65 49  1  0  0  0
 66 42  1  0  0  0
 66 48  1  0  0  0
M  END
$$$$
