TC9
  CCTOOLS-0919241033

 87 93  0  0  1  0  0  0  0  0999 V2000
   -5.3430    3.2250   -0.5160 N   0  3  0  0  0
   -6.0990    2.9640    0.7060 C   0  0  0  0  0
   -6.4180    1.4870    0.8760 C   0  0  0  0  0
   -5.3000    0.5910    0.4260 C   0  0  0  0  0
   -4.1800    1.0870   -0.2130 C   0  0  0  0  0
   -4.0360    2.5620   -0.4530 C   0  0  0  0  0
   -5.3860   -0.7730    0.6580 C   0  0  0  0  0
   -4.3870   -1.6280    0.2270 C   0  0  0  0  0
   -3.2730   -1.1300   -0.4690 C   0  0  0  0  0
   -3.1780    0.2390   -0.6600 C   0  0  0  0  0
   -2.3950   -1.9860   -0.9720 O   0  0  0  0  0
   -1.1890   -2.5080   -0.8250 C   0  0  0  0  0
   -1.0820   -3.8990   -0.6290 C   0  0  0  0  0
    0.1560   -4.4950   -0.5440 C   0  0  0  0  0
    1.3070   -3.7290   -0.6520 C   0  0  0  0  0
    1.2210   -2.3610   -0.8000 C   0  0  0  0  0
   -0.0240   -1.7550   -0.8620 C   0  0  0  0  0
    2.4540   -1.5160   -0.9560 C   0  0  0  0  0
    3.2840   -1.3310    0.3090 C   0  0  0  0  0
    4.2080   -2.3940    0.6110 N   0  3  0  0  0
    5.4520   -1.9580    1.2630 C   0  0  0  0  0
    6.2250   -1.0210    0.3290 C   0  0  0  0  0
    5.3340    0.1840    0.1370 C   0  0  0  0  0
    3.9740    0.0110    0.1690 C   0  0  0  0  0
    5.9040    1.4270   -0.0700 C   0  0  0  0  0
    5.0940    2.5470   -0.1910 C   0  0  0  0  0
    3.7170    2.3970   -0.0830 C   0  0  0  0  0
    3.1490    1.1570    0.1100 C   0  0  0  0  0
    1.8700    0.9150    0.2900 O   0  0  0  0  0
    0.6930    1.4820    0.3780 C   0  0  0  0  0
    0.0890    2.0540   -0.7400 C   0  0  0  0  0
   -1.1550    2.6350   -0.6330 C   0  0  0  0  0
   -1.8080    2.6440    0.5860 C   0  0  0  0  0
   -1.2130    2.1120    1.7080 C   0  0  0  0  0
    0.0340    1.5330    1.6070 C   0  0  0  0  0
   -3.2020    3.2220    0.6540 C   0  0  0  0  0
   -4.4840   -2.9610    0.4770 O   0  0  0  0  0
   -5.6410   -3.4050    1.1890 C   0  0  0  0  0
   -2.2110   -4.6510   -0.5290 O   0  0  0  0  0
    5.6380    3.7730   -0.4110 O   0  0  0  0  0
    7.0620    3.8420   -0.5080 C   0  0  0  0  0
    2.9180    3.4950   -0.1710 O   0  0  0  0  0
   -6.0850    2.7810   -1.7020 C   0  0  0  0  0
    4.5810   -3.1900   -0.5630 C   0  0  0  0  0
    3.5490   -3.3030    1.5780 C   0  0  0  0  0
   -5.5340    3.3160    1.5720 H   0  0  0  0  0
   -7.0390    3.5270    0.6690 H   0  0  0  0  0
   -3.5220    2.7220   -1.4070 H   0  0  0  0  0
   -7.0340    3.3160   -1.7580 H   0  0  0  0  0
   -5.4980    2.9880   -2.5970 H   0  0  0  0  0
   -6.2760    1.7100   -1.6320 H   0  0  0  0  0
   -6.6220    1.2940    1.9330 H   0  0  0  0  0
   -7.3200    1.2450    0.3110 H   0  0  0  0  0
   -6.2460   -1.1730    1.1770 H   0  0  0  0  0
   -2.3140    0.6460   -1.1650 H   0  0  0  0  0
   -3.1660    4.2980    0.4980 H   0  0  0  0  0
   -3.6400    3.0030    1.6270 H   0  0  0  0  0
   -0.0870   -0.6790   -0.9330 H   0  0  0  0  0
    0.2400   -5.5620   -0.3970 H   0  0  0  0  0
   -2.5340   -4.9910   -1.3750 H   0  0  0  0  0
    2.2580   -4.2380   -0.6450 H   0  0  0  0  0
    3.0310   -1.8470   -1.8100 H   0  0  0  0  0
    2.0930   -0.5070   -1.2580 H   0  0  0  0  0
    2.5680   -1.2390    1.1530 H   0  0  0  0  0
    5.2100   -1.4400    2.1920 H   0  0  0  0  0
    6.0620   -2.8340    1.4920 H   0  0  0  0  0
    5.1440   -2.5680   -1.2600 H   0  0  0  0  0
    5.1970   -4.0330   -0.2490 H   0  0  0  0  0
    3.6800   -3.5600   -1.0520 H   0  0  0  0  0
    2.6390   -3.7070    1.1350 H   0  0  0  0  0
    4.2260   -4.1210    1.8270 H   0  0  0  0  0
    3.2980   -2.7510    2.4840 H   0  0  0  0  0
    7.1520   -0.7050    0.8230 H   0  0  0  0  0
    6.4680   -1.4800   -0.6190 H   0  0  0  0  0
    6.9770    1.5270   -0.1370 H   0  0  0  0  0
    2.6310    3.7010   -1.0710 H   0  0  0  0  0
    0.5970    2.0420   -1.6930 H   0  0  0  0  0
    0.5010    1.1180    2.4870 H   0  0  0  0  0
   -1.6120    3.0880   -1.5010 H   0  0  0  0  0
   -1.7180    2.1490    2.6630 H   0  0  0  0  0
   -5.6760   -2.9200    2.1640 H   0  0  0  0  0
   -6.5370   -3.1470    0.6230 H   0  0  0  0  0
   -5.5940   -4.4850    1.3220 H   0  0  0  0  0
    7.5080    3.4860    0.4210 H   0  0  0  0  0
    7.4010    3.2190   -1.3350 H   0  0  0  0  0
    7.3650    4.8750   -0.6830 H   0  0  0  0  0
   -5.1870    4.2300   -0.5960 H   0  0  0  0  0
  1  2  1  0  0  0
  1  6  1  0  0  0
  1 43  1  0  0  0
  1 87  1  0  0  0
  2  3  1  0  0  0
  2 46  1  0  0  0
  2 47  1  0  0  0
  3  4  1  0  0  0
  3 52  1  0  0  0
  3 53  1  0  0  0
  4  5  1  0  0  0
  4  7  2  0  0  0
  5  6  1  0  0  0
  5 10  2  0  0  0
  6 36  1  0  0  0
  6 48  1  0  0  0
  7  8  1  0  0  0
  7 54  1  0  0  0
  8  9  2  0  0  0
  8 37  1  0  0  0
  9 10  1  0  0  0
  9 11  1  0  0  0
 10 55  1  0  0  0
 11 12  1  0  0  0
 12 13  1  0  0  0
 12 17  2  0  0  0
 13 14  2  0  0  0
 13 39  1  0  0  0
 14 15  1  0  0  0
 14 59  1  0  0  0
 15 16  2  0  0  0
 15 61  1  0  0  0
 16 17  1  0  0  0
 16 18  1  0  0  0
 17 58  1  0  0  0
 18 19  1  0  0  0
 18 62  1  0  0  0
 18 63  1  0  0  0
 19 20  1  0  0  0
 19 24  1  0  0  0
 19 64  1  0  0  0
 20 21  1  0  0  0
 20 44  1  0  0  0
 20 45  1  0  0  0
 21 22  1  0  0  0
 21 65  1  0  0  0
 21 66  1  0  0  0
 22 23  1  0  0  0
 22 73  1  0  0  0
 22 74  1  0  0  0
 23 24  1  0  0  0
 23 25  2  0  0  0
 24 28  2  0  0  0
 25 26  1  0  0  0
 25 75  1  0  0  0
 26 27  2  0  0  0
 26 40  1  0  0  0
 27 28  1  0  0  0
 27 42  1  0  0  0
 28 29  1  0  0  0
 29 30  1  0  0  0
 30 31  1  0  0  0
 30 35  2  0  0  0
 31 32  2  0  0  0
 31 77  1  0  0  0
 32 33  1  0  0  0
 32 79  1  0  0  0
 33 34  2  0  0  0
 33 36  1  0  0  0
 34 35  1  0  0  0
 34 80  1  0  0  0
 35 78  1  0  0  0
 36 56  1  0  0  0
 36 57  1  0  0  0
 37 38  1  0  0  0
 38 81  1  0  0  0
 38 82  1  0  0  0
 38 83  1  0  0  0
 39 60  1  0  0  0
 40 41  1  0  0  0
 41 84  1  0  0  0
 41 85  1  0  0  0
 41 86  1  0  0  0
 42 76  1  0  0  0
 43 49  1  0  0  0
 43 50  1  0  0  0
 43 51  1  0  0  0
 44 67  1  0  0  0
 44 68  1  0  0  0
 44 69  1  0  0  0
 45 70  1  0  0  0
 45 71  1  0  0  0
 45 72  1  0  0  0
M  CHG  1   1   1
M  CHG  1  20   1
M  END
$$$$
