TCE
  CCTOOLS-0919241033

 31 30  0  0  0  0  0  0  0  0999 V2000
    4.3320    1.2720    1.0220 O   0  0  0  0  0
    4.3340    0.5900    0.0240 C   0  0  0  0  0
    5.4970    0.1810   -0.5070 O   0  0  0  0  0
    3.0310    0.1930   -0.6200 C   0  0  0  0  0
    1.8670    0.7800    0.1810 C   0  0  0  0  0
    0.2900    0.3010   -0.5980 P   0  0  0  0  0
   -0.0840   -1.2740    0.2420 C   0  0  0  0  0
   -1.1730   -2.0190   -0.5330 C   0  0  0  0  0
   -1.4820   -3.3200    0.1610 C   0  0  0  0  0
   -0.8920   -3.6210    1.1720 O   0  0  0  0  0
   -2.4120   -4.1460   -0.3430 O   0  0  0  0  0
   -0.8880    1.4430    0.1970 C   0  0  0  0  0
   -2.2000    1.4510   -0.5910 C   0  0  0  0  0
   -3.1740    2.3950    0.0660 C   0  0  0  0  0
   -4.3990    2.5650   -0.4560 O   0  0  0  0  0
   -2.8520    2.9990    1.0610 O   0  0  0  0  0
    6.3070    0.4570   -0.0560 H   0  0  0  0  0
    2.9990    0.5750   -1.6400 H   0  0  0  0  0
    2.9490   -0.8930   -0.6360 H   0  0  0  0  0
    1.8990    0.3990    1.2020 H   0  0  0  0  0
    1.9480    1.8670    0.1970 H   0  0  0  0  0
    0.8170   -1.8870    0.2830 H   0  0  0  0  0
   -0.4320   -1.0720    1.2550 H   0  0  0  0  0
   -2.0730   -1.4060   -0.5740 H   0  0  0  0  0
   -0.8240   -2.2210   -1.5460 H   0  0  0  0  0
   -2.5760   -4.9690    0.1370 H   0  0  0  0  0
   -1.0800    1.1150    1.2180 H   0  0  0  0  0
   -0.4670    2.4480    0.2110 H   0  0  0  0  0
   -2.0090    1.7790   -1.6130 H   0  0  0  0  0
   -2.6220    0.4460   -0.6050 H   0  0  0  0  0
   -4.9890    3.1810    0.0010 H   0  0  0  0  0
  1  2  2  0  0  0
  2  3  1  0  0  0
  2  4  1  0  0  0
  3 17  1  0  0  0
  4 18  1  0  0  0
  4 19  1  0  0  0
  5  4  1  0  0  0
  5  6  1  0  0  0
  5 20  1  0  0  0
  5 21  1  0  0  0
  6  7  1  0  0  0
  7  8  1  0  0  0
  7 22  1  0  0  0
  7 23  1  0  0  0
  8  9  1  0  0  0
  8 24  1  0  0  0
  8 25  1  0  0  0
  9 11  1  0  0  0
 10  9  2  0  0  0
 11 26  1  0  0  0
 12  6  1  0  0  0
 12 27  1  0  0  0
 12 28  1  0  0  0
 13 12  1  0  0  0
 13 29  1  0  0  0
 13 30  1  0  0  0
 14 13  1  0  0  0
 15 14  1  0  0  0
 15 31  1  0  0  0
 16 14  2  0  0  0
M  END
$$$$
