TDS
  CCTOOLS-0919241033

 68 69  0  0  0  0  0  0  0  0999 V2000
   -0.6480    0.6040   13.8280 C   0  0  0  0  0
   -0.7080    1.2640   12.4500 C   0  0  0  0  0
   -0.3980    0.2240   11.3710 C   0  0  0  0  0
   -0.4580    0.8850    9.9930 C   0  0  0  0  0
   -0.1480   -0.1550    8.9150 C   0  0  0  0  0
   -0.2080    0.5050    7.5360 C   0  0  0  0  0
    0.1000   -0.5340    6.4580 C   0  0  0  0  0
    0.0400    0.1260    5.0790 C   0  0  0  0  0
    0.3500   -0.9140    4.0010 C   0  0  0  0  0
    0.2900   -0.2530    2.6220 C   0  0  0  0  0
    0.6000   -1.2940    1.5440 C   0  0  0  0  0
    0.5400   -0.6330    0.1650 C   0  0  0  0  0
    0.8490   -1.6730   -0.9120 C   0  0  0  0  0
    0.7900   -1.0220   -2.2700 C   0  0  0  0  0
   -0.3750   -1.0120   -2.9240 O   0  0  0  0  0
    1.9130   -0.4810   -2.7730 C   0  0  0  0  0
    3.1970   -0.5320   -1.9860 C   0  0  0  0  0
    1.8820    0.1370   -4.0520 C   0  0  0  0  0
    2.8820    0.6380   -4.5400 O   0  0  0  0  0
    0.5940    0.1500   -4.7640 C   0  0  0  0  0
   -0.5160   -0.4460   -4.1420 C   0  0  0  0  0
   -1.7430   -0.4480   -4.7930 C   0  0  0  0  0
   -2.8270   -1.0220   -4.2030 O   0  0  0  0  0
   -1.8620    0.1350   -6.0480 C   0  0  0  0  0
   -3.0650    0.1310   -6.6800 O   0  0  0  0  0
   -2.8760    0.7940   -7.9320 C   0  0  0  0  0
   -0.7630    0.7250   -6.6630 C   0  0  0  0  0
    0.4650    0.7360   -6.0290 C   0  0  0  0  0
    1.5380    1.3110   -6.6300 O   0  0  0  0  0
    1.0880    1.8110   -7.8900 C   0  0  0  0  0
   -0.8680    1.3450   14.5960 H   0  0  0  0  0
   -1.3820   -0.2000   13.8780 H   0  0  0  0  0
    0.3490    0.1960   13.9930 H   0  0  0  0  0
   -1.7050    1.6720   12.2850 H   0  0  0  0  0
    0.0250    2.0690   12.4000 H   0  0  0  0  0
    0.5990   -0.1830   11.5360 H   0  0  0  0  0
   -1.1320   -0.5790   11.4210 H   0  0  0  0  0
   -1.4560    1.2920    9.8280 H   0  0  0  0  0
    0.2750    1.6890    9.9430 H   0  0  0  0  0
    0.8480   -0.5620    9.0790 H   0  0  0  0  0
   -0.8820   -0.9590    8.9640 H   0  0  0  0  0
   -1.2060    0.9130    7.3720 H   0  0  0  0  0
    0.5250    1.3100    7.4860 H   0  0  0  0  0
    1.0980   -0.9420    6.6220 H   0  0  0  0  0
   -0.6330   -1.3390    6.5070 H   0  0  0  0  0
   -0.9560    0.5330    4.9150 H   0  0  0  0  0
    0.7740    0.9300    5.0290 H   0  0  0  0  0
    1.3480   -1.3220    4.1650 H   0  0  0  0  0
   -0.3830   -1.7180    4.0510 H   0  0  0  0  0
   -0.7070    0.1540    2.4580 H   0  0  0  0  0
    1.0240    0.5500    2.5730 H   0  0  0  0  0
    1.5970   -1.7010    1.7080 H   0  0  0  0  0
   -0.1330   -2.0980    1.5940 H   0  0  0  0  0
   -0.4570   -0.2250    0.0010 H   0  0  0  0  0
    1.2740    0.1710    0.1160 H   0  0  0  0  0
    1.8470   -2.0810   -0.7470 H   0  0  0  0  0
    0.1160   -2.4770   -0.8620 H   0  0  0  0  0
    3.9910   -0.0460   -2.5540 H   0  0  0  0  0
    3.0620   -0.0160   -1.0360 H   0  0  0  0  0
    3.4680   -1.5710   -1.8000 H   0  0  0  0  0
   -2.8370   -1.9490   -4.4790 H   0  0  0  0  0
   -3.8190    0.8150   -8.4780 H   0  0  0  0  0
   -2.5360    1.8140   -7.7550 H   0  0  0  0  0
   -2.1280    0.2580   -8.5170 H   0  0  0  0  0
   -0.8700    1.1750   -7.6380 H   0  0  0  0  0
    1.9200    2.2840   -8.4120 H   0  0  0  0  0
    0.7030    0.9870   -8.4920 H   0  0  0  0  0
    0.2960    2.5430   -7.7290 H   0  0  0  0  0
  1  2  1  0  0  0
  1 31  1  0  0  0
  1 32  1  0  0  0
  1 33  1  0  0  0
  2  3  1  0  0  0
  2 34  1  0  0  0
  2 35  1  0  0  0
  3  4  1  0  0  0
  3 36  1  0  0  0
  3 37  1  0  0  0
  4  5  1  0  0  0
  4 38  1  0  0  0
  4 39  1  0  0  0
  5  6  1  0  0  0
  5 40  1  0  0  0
  5 41  1  0  0  0
  6  7  1  0  0  0
  6 42  1  0  0  0
  6 43  1  0  0  0
  7  8  1  0  0  0
  7 44  1  0  0  0
  7 45  1  0  0  0
  8  9  1  0  0  0
  8 46  1  0  0  0
  8 47  1  0  0  0
  9 10  1  0  0  0
  9 48  1  0  0  0
  9 49  1  0  0  0
 10 11  1  0  0  0
 10 50  1  0  0  0
 10 51  1  0  0  0
 11 12  1  0  0  0
 11 52  1  0  0  0
 11 53  1  0  0  0
 12 13  1  0  0  0
 12 54  1  0  0  0
 12 55  1  0  0  0
 13 14  1  0  0  0
 13 56  1  0  0  0
 13 57  1  0  0  0
 14 15  1  0  0  0
 14 16  2  0  0  0
 15 21  1  0  0  0
 16 17  1  0  0  0
 16 18  1  0  0  0
 17 58  1  0  0  0
 17 59  1  0  0  0
 17 60  1  0  0  0
 18 19  2  0  0  0
 18 20  1  0  0  0
 20 21  2  0  0  0
 20 28  1  0  0  0
 21 22  1  0  0  0
 22 23  1  0  0  0
 22 24  2  0  0  0
 23 61  1  0  0  0
 24 25  1  0  0  0
 24 27  1  0  0  0
 25 26  1  0  0  0
 26 62  1  0  0  0
 26 63  1  0  0  0
 26 64  1  0  0  0
 27 28  2  0  0  0
 27 65  1  0  0  0
 28 29  1  0  0  0
 29 30  1  0  0  0
 30 66  1  0  0  0
 30 67  1  0  0  0
 30 68  1  0  0  0
M  END
$$$$
