TEU
  CCTOOLS-0919241034

 45 45  0  0  1  0  0  0  0  0999 V2000
    1.2170    1.1040    0.4000 O   0  0  0  0  0
   -0.1250    0.9450    0.8640 C   0  0  0  0  0
   -1.0810    1.4820   -0.1710 C   0  0  0  0  0
   -0.6560    1.9510   -1.1990 O   0  0  0  0  0
   -2.5660    1.4320    0.0780 C   0  0  0  0  0
   -3.2340    2.2910   -0.8490 O   0  0  0  0  0
   -3.0670   -0.0020   -0.1040 C   0  0  0  0  0
   -2.6900   -0.4770   -1.3980 O   0  0  0  0  0
   -4.5910   -0.0310    0.0250 C   0  0  0  0  0
   -4.9680    0.4440    1.3190 O   0  0  0  0  0
   -5.0910   -1.4650   -0.1570 C   0  0  0  0  0
   -6.5200   -1.4760   -0.1520 O   0  0  0  0  0
    2.2070    0.6240    1.3110 C   0  0  0  0  0
    3.5950    1.0630    0.8360 C   0  0  0  0  0
    3.6330    2.4870    0.7250 O   0  0  0  0  0
    3.8790    0.4350   -0.5320 C   0  0  0  0  0
    5.2000    0.7820   -0.9520 O   0  0  0  0  0
    3.7590   -1.0870   -0.4180 C   0  0  0  0  0
    3.9510   -1.6800   -1.7040 O   0  0  0  0  0
    2.3650   -1.4440    0.1060 C   0  0  0  0  0
    2.1530   -0.8030    1.3660 O   0  0  0  0  0
    2.2570   -2.9600    0.2800 C   0  0  0  0  0
    0.9220   -3.3020    0.6580 O   0  0  0  0  0
   -0.3290   -0.1120    1.0330 H   0  0  0  0  0
   -0.2550    1.4940    1.7970 H   0  0  0  0  0
   -2.7760    1.7630    1.0950 H   0  0  0  0  0
   -3.0920    2.0550   -1.7760 H   0  0  0  0  0
   -2.6250   -0.6410    0.6600 H   0  0  0  0  0
   -3.0480    0.0450   -2.1290 H   0  0  0  0  0
   -5.0330    0.6080   -0.7390 H   0  0  0  0  0
   -4.6100   -0.0780    2.0500 H   0  0  0  0  0
   -4.7280   -1.8590   -1.1070 H   0  0  0  0  0
   -4.7200   -2.0860    0.6590 H   0  0  0  0  0
   -6.9070   -2.3550   -0.2640 H   0  0  0  0  0
    2.0170    1.0330    2.3030 H   0  0  0  0  0
    4.3470    0.7330    1.5520 H   0  0  0  0  0
    3.4560    2.9510    1.5540 H   0  0  0  0  0
    3.1570    0.8040   -1.2600 H   0  0  0  0  0
    5.3480    1.7340   -1.0390 H   0  0  0  0  0
    4.5140   -1.4620    0.2730 H   0  0  0  0  0
    4.8130   -1.4910   -2.0990 H   0  0  0  0  0
    1.6120   -1.1050   -0.6050 H   0  0  0  0  0
    2.5070   -3.4520   -0.6600 H   0  0  0  0  0
    2.9500   -3.2860    1.0560 H   0  0  0  0  0
    0.7810   -4.2500    0.7860 H   0  0  0  0  0
  2  3  1  0  0  0
  2  1  1  0  0  0
  2 24  1  0  0  0
  2 25  1  0  0  0
  3  4  2  0  0  0
  5  6  1  0  0  0
  5  3  1  0  0  0
  5 26  1  0  0  0
  6 27  1  0  0  0
  7  5  1  0  0  0
  7 28  1  0  0  0
  8  7  1  0  0  0
  8 29  1  0  0  0
  9 10  1  0  0  0
  9  7  1  0  0  0
  9 30  1  0  0  0
 10 31  1  0  0  0
 11  9  1  0  0  0
 11 32  1  0  0  0
 11 33  1  0  0  0
 12 11  1  0  0  0
 12 34  1  0  0  0
 13  1  1  0  0  0
 13 35  1  0  0  0
 14 15  1  0  0  0
 14 13  1  0  0  0
 14 36  1  0  0  0
 15 37  1  0  0  0
 16 14  1  0  0  0
 16 38  1  0  0  0
 17 16  1  0  0  0
 17 39  1  0  0  0
 18 16  1  0  0  0
 18 20  1  0  0  0
 18 40  1  0  0  0
 19 18  1  0  0  0
 19 41  1  0  0  0
 20 22  1  0  0  0
 20 21  1  0  0  0
 20 42  1  0  0  0
 21 13  1  0  0  0
 22 43  1  0  0  0
 22 44  1  0  0  0
 23 22  1  0  0  0
 23 45  1  0  0  0
M  END
$$$$
