TF1
  CCTOOLS-0919241034

 47 48  0  0  1  0  0  0  0  0999 V2000
    1.3220   -0.0500   -0.6340 N   0  0  0  0  0
    2.5290   -0.6270   -0.4770 C   0  0  0  0  0
    0.1150   -0.8720   -0.8010 C   0  0  0  0  0
    1.1870    1.4140   -0.6410 C   0  0  0  0  0
    3.7330    0.2200   -0.1560 C   0  0  0  0  0
    2.6470   -1.8280   -0.5950 O   0  0  0  0  0
   -0.9050   -0.4690    0.2710 C   0  0  0  0  0
    0.4760   -2.3510   -0.6400 C   0  0  0  0  0
    0.1670    1.8180    0.4310 C   0  0  0  0  0
    4.8660   -0.6750    0.3520 C   0  0  0  0  0
    4.1910    0.9560   -1.4170 C   0  0  0  0  0
    3.3910    1.1720    0.8530 O   0  0  0  0  0
   -1.0400    0.9950    0.2680 N   0  0  0  0  0
   -0.1930    3.2960    0.2660 C   0  0  0  0  0
    5.2020   -1.6070   -0.6360 F   0  0  0  0  0
    5.9840    0.1120    0.6500 F   0  0  0  0  0
    4.4480   -1.3470    1.5050 F   0  0  0  0  0
   -2.2480    1.5720    0.1130 C   0  0  0  0  0
   -3.4710    0.7400    0.1100 C   0  0  0  0  0
   -2.3330    2.7770   -0.0250 O   0  0  0  0  0
   -4.5730    1.1210   -0.6570 C   0  0  0  0  0
   -3.5200   -0.4300    0.8700 C   0  0  0  0  0
   -5.7120    0.3460   -0.6600 C   0  0  0  0  0
   -4.6610   -1.2030    0.8730 C   0  0  0  0  0
   -5.7640   -0.8210    0.1050 C   0  0  0  0  0
   -6.9470   -1.6270    0.1030 C   0  0  0  0  0
   -7.8870   -2.2660    0.1010 N   0  0  0  0  0
   -0.3080   -0.7040   -1.7910 H   0  0  0  0  0
    0.8400    1.7450   -1.6200 H   0  0  0  0  0
    2.1520    1.8710   -0.4180 H   0  0  0  0  0
   -1.8700   -0.9250    0.0480 H   0  0  0  0  0
   -0.5590   -0.7990    1.2500 H   0  0  0  0  0
    1.0070   -2.4950    0.3000 H   0  0  0  0  0
   -0.4360   -2.9490   -0.6390 H   0  0  0  0  0
    1.1120   -2.6610   -1.4690 H   0  0  0  0  0
    0.5910    1.6520    1.4210 H   0  0  0  0  0
    3.3840    1.5930   -1.7790 H   0  0  0  0  0
    5.0620    1.5680   -1.1850 H   0  0  0  0  0
    4.4530    0.2290   -2.1870 H   0  0  0  0  0
    3.1080    0.6690    1.6280 H   0  0  0  0  0
   -0.6300    3.4560   -0.7190 H   0  0  0  0  0
   -0.9120    3.5820    1.0330 H   0  0  0  0  0
    0.7070    3.9020    0.3670 H   0  0  0  0  0
   -4.5340    2.0240   -1.2480 H   0  0  0  0  0
   -2.6670   -0.7250    1.4640 H   0  0  0  0  0
   -6.5650    0.6420   -1.2530 H   0  0  0  0  0
   -4.7000   -2.1050    1.4640 H   0  0  0  0  0
  1  2  1  0  0  0
  1  3  1  0  0  0
  1  4  1  0  0  0
  2  5  1  0  0  0
  2  6  2  0  0  0
  3  7  1  0  0  0
  3  8  1  0  0  0
  3 28  1  0  0  0
  4  9  1  0  0  0
  4 29  1  0  0  0
  4 30  1  0  0  0
  5 10  1  0  0  0
  5 11  1  0  0  0
  5 12  1  0  0  0
  7 13  1  0  0  0
  7 31  1  0  0  0
  7 32  1  0  0  0
  8 33  1  0  0  0
  8 34  1  0  0  0
  8 35  1  0  0  0
  9 13  1  0  0  0
  9 14  1  0  0  0
  9 36  1  0  0  0
 10 15  1  0  0  0
 10 16  1  0  0  0
 10 17  1  0  0  0
 11 37  1  0  0  0
 11 38  1  0  0  0
 11 39  1  0  0  0
 12 40  1  0  0  0
 13 18  1  0  0  0
 14 41  1  0  0  0
 14 42  1  0  0  0
 14 43  1  0  0  0
 18 19  1  0  0  0
 18 20  2  0  0  0
 19 21  2  0  0  0
 19 22  1  0  0  0
 21 23  1  0  0  0
 21 44  1  0  0  0
 22 24  2  0  0  0
 22 45  1  0  0  0
 23 25  2  0  0  0
 23 46  1  0  0  0
 24 25  1  0  0  0
 24 47  1  0  0  0
 25 26  1  0  0  0
 26 27  3  0  0  0
M  END
$$$$
