TF2
  CCTOOLS-0919241034

 50 51  0  0  1  0  0  0  0  0999 V2000
   -0.9490   -0.5180    1.2870 C   0  0  0  0  0
   -1.1410   -0.9160    2.9930 S   0  0  0  0  0
   -1.9040    0.2480    0.6460 C   0  0  0  0  0
    0.1520   -0.9800    0.5900 C   0  0  0  0  0
   -0.5160    0.3430    3.8680 N   0  0  0  0  0
   -0.2770   -2.0180    3.2320 O   0  0  0  0  0
   -2.5410   -0.8990    3.2380 O   0  0  0  0  0
   -1.7540    0.5650   -0.6890 C   0  0  0  0  0
    0.3050   -0.6700   -0.7460 C   0  0  0  0  0
    0.7990    0.2850    4.3330 C   0  0  0  0  0
   -1.3430    1.5180    4.1540 C   0  0  0  0  0
   -0.6490    0.1040   -1.3910 C   0  0  0  0  0
   -2.7930    1.4070   -1.3860 C   0  0  0  0  0
    1.7240    1.2390    3.9270 C   0  0  0  0  0
    1.1850   -0.7230    5.2060 C   0  0  0  0  0
   -2.0110    1.3510    5.5200 C   0  0  0  0  0
   -0.4970    0.4190   -2.7460 N   0  0  0  0  0
    3.0240    1.1790    4.3890 C   0  0  0  0  0
    2.4880   -0.7800    5.6610 C   0  0  0  0  0
    0.7260    0.3940   -3.3110 C   0  0  0  0  0
    3.4060    0.1710    5.2540 C   0  0  0  0  0
    0.8740    0.5920   -4.7970 C   0  0  0  0  0
    1.7080    0.2130   -2.6220 O   0  0  0  0  0
    0.1040   -0.5030   -5.5360 C   0  0  0  0  0
    0.3140    1.9610   -5.1880 C   0  0  0  0  0
    2.2570    0.5230   -5.1510 O   0  0  0  0  0
    0.2410   -0.3200   -6.9170 F   0  0  0  0  0
    0.6150   -1.7550   -5.1790 F   0  0  0  0  0
   -1.2490   -0.4370   -5.1900 F   0  0  0  0  0
   -2.7640    0.6070    1.1920 H   0  0  0  0  0
    0.8940   -1.5820    1.0930 H   0  0  0  0  0
    1.1660   -1.0300   -1.2890 H   0  0  0  0  0
   -2.1080    1.6190    3.3850 H   0  0  0  0  0
   -0.7160    2.4100    4.1630 H   0  0  0  0  0
   -3.5600    0.7590   -1.8100 H   0  0  0  0  0
   -3.2490    2.0890   -0.6680 H   0  0  0  0  0
   -2.3200    1.9810   -2.1830 H   0  0  0  0  0
    1.4260    2.0270    3.2500 H   0  0  0  0  0
    0.4690   -1.4660    5.5240 H   0  0  0  0  0
   -2.5580    2.2590    5.7700 H   0  0  0  0  0
   -2.7020    0.5080    5.4860 H   0  0  0  0  0
   -1.2490    1.1650    6.2770 H   0  0  0  0  0
   -1.2720    0.6560   -3.2790 H   0  0  0  0  0
    3.7430    1.9200    4.0730 H   0  0  0  0  0
    2.7890   -1.5660    6.3370 H   0  0  0  0  0
    4.4230    0.1260    5.6140 H   0  0  0  0  0
   -0.7400    2.0130   -4.9180 H   0  0  0  0  0
    0.8630    2.7420   -4.6620 H   0  0  0  0  0
    0.4210    2.1030   -6.2640 H   0  0  0  0  0
    2.5700   -0.3520   -4.8890 H   0  0  0  0  0
  1  2  1  0  0  0
  1  3  2  0  0  0
  1  4  1  0  0  0
  2  5  1  0  0  0
  2  6  2  0  0  0
  2  7  2  0  0  0
  3  8  1  0  0  0
  3 30  1  0  0  0
  4  9  2  0  0  0
  4 31  1  0  0  0
  5 10  1  0  0  0
  5 11  1  0  0  0
  8 12  2  0  0  0
  8 13  1  0  0  0
  9 12  1  0  0  0
  9 32  1  0  0  0
 10 14  2  0  0  0
 10 15  1  0  0  0
 11 16  1  0  0  0
 11 33  1  0  0  0
 11 34  1  0  0  0
 12 17  1  0  0  0
 13 35  1  0  0  0
 13 36  1  0  0  0
 13 37  1  0  0  0
 14 18  1  0  0  0
 14 38  1  0  0  0
 15 19  2  0  0  0
 15 39  1  0  0  0
 16 40  1  0  0  0
 16 41  1  0  0  0
 16 42  1  0  0  0
 17 20  1  0  0  0
 17 43  1  0  0  0
 18 21  2  0  0  0
 18 44  1  0  0  0
 19 21  1  0  0  0
 19 45  1  0  0  0
 20 22  1  0  0  0
 20 23  2  0  0  0
 21 46  1  0  0  0
 22 24  1  0  0  0
 22 25  1  0  0  0
 22 26  1  0  0  0
 24 27  1  0  0  0
 24 28  1  0  0  0
 24 29  1  0  0  0
 25 47  1  0  0  0
 25 48  1  0  0  0
 25 49  1  0  0  0
 26 50  1  0  0  0
M  END
$$$$
