TF3
  CCTOOLS-0919241034

 50 51  0  0  0  0  0  0  0  0999 V2000
    0.0190    0.5420   -0.3980 C   0  0  0  0  0
   -0.8080    1.6000   -0.0490 C   0  0  0  0  0
   -0.5050   -0.5500   -1.0750 C   0  0  0  0  0
    1.3380    0.5720   -0.0730 O   0  0  0  0  0
   -2.1490    1.5680   -0.3850 C   0  0  0  0  0
   -0.1580    2.9680    0.7990 CL  0  0  0  0  0
   -1.8460   -0.5790   -1.4040 C   0  0  0  0  0
    1.9110   -0.6450   -0.5560 C   0  0  0  0  0
   -2.6670    0.4790   -1.0600 C   0  0  0  0  0
    3.3810   -0.6730   -0.2260 C   0  0  0  0  0
   -4.1300    0.4440   -1.4210 C   0  0  0  0  0
    3.8100   -1.2170    0.9710 C   0  0  0  0  0
    4.3000   -0.1560   -1.1190 C   0  0  0  0  0
   -4.9090   -0.1970   -0.3010 C   0  0  0  0  0
    5.1590   -1.2430    1.2730 C   0  0  0  0  0
    5.6490   -0.1790   -0.8150 C   0  0  0  0  0
   -6.2450   -0.3370   -0.4030 N   0  0  0  0  0
   -4.3320   -0.5870    0.6930 O   0  0  0  0  0
    6.0780   -0.7270    0.3790 C   0  0  0  0  0
   -7.0020   -0.9600    0.6860 C   0  0  0  0  0
    7.5480   -0.7570    0.7090 C   0  0  0  0  0
   -8.4870   -0.9950    0.3190 C   0  0  0  0  0
    8.2930   -1.5680   -0.3530 C   0  0  0  0  0
    8.0940    0.6720    0.7350 C   0  0  0  0  0
   -9.2460   -1.6200    1.4110 N   0  0  0  0  0
    0.1360   -1.3770   -1.3440 H   0  0  0  0  0
   -2.7930    2.3930   -0.1170 H   0  0  0  0  0
   -2.2540   -1.4290   -1.9310 H   0  0  0  0  0
    1.7800   -0.7040   -1.6360 H   0  0  0  0  0
    1.4160   -1.4920   -0.0830 H   0  0  0  0  0
   -4.4900    1.4600   -1.5780 H   0  0  0  0  0
   -4.2650   -0.1350   -2.3350 H   0  0  0  0  0
    3.0920   -1.6200    1.6690 H   0  0  0  0  0
    3.9650    0.2690   -2.0540 H   0  0  0  0  0
    5.4940   -1.6680    2.2080 H   0  0  0  0  0
    6.3670    0.2250   -1.5130 H   0  0  0  0  0
   -6.7060   -0.0250   -1.1980 H   0  0  0  0  0
   -6.6420   -1.9770    0.8430 H   0  0  0  0  0
   -6.8670   -0.3810    1.5990 H   0  0  0  0  0
    7.6920   -1.2180    1.6860 H   0  0  0  0  0
   -8.8470    0.0220    0.1620 H   0  0  0  0  0
   -8.6220   -1.5740   -0.5940 H   0  0  0  0  0
    9.3570   -1.5890   -0.1140 H   0  0  0  0  0
    7.9050   -2.5860   -0.3710 H   0  0  0  0  0
    8.1490   -1.1060   -1.3300 H   0  0  0  0  0
    7.9500    1.1340   -0.2420 H   0  0  0  0  0
    7.5630    1.2500    1.4920 H   0  0  0  0  0
    9.1570    0.6510    0.9740 H   0  0  0  0  0
  -10.2140   -1.6220    1.1270 H   0  0  0  0  0
   -8.9540   -2.5850    1.4520 H   0  0  0  0  0
  1  2  2  0  0  0
  1  3  1  0  0  0
  1  4  1  0  0  0
  2  5  1  0  0  0
  2  6  1  0  0  0
  3  7  2  0  0  0
  3 26  1  0  0  0
  4  8  1  0  0  0
  5  9  2  0  0  0
  5 27  1  0  0  0
  7  9  1  0  0  0
  7 28  1  0  0  0
  8 10  1  0  0  0
  8 29  1  0  0  0
  8 30  1  0  0  0
  9 11  1  0  0  0
 10 12  2  0  0  0
 10 13  1  0  0  0
 11 14  1  0  0  0
 11 31  1  0  0  0
 11 32  1  0  0  0
 12 15  1  0  0  0
 12 33  1  0  0  0
 13 16  2  0  0  0
 13 34  1  0  0  0
 14 17  1  0  0  0
 14 18  2  0  0  0
 15 19  2  0  0  0
 15 35  1  0  0  0
 16 19  1  0  0  0
 16 36  1  0  0  0
 17 20  1  0  0  0
 17 37  1  0  0  0
 19 21  1  0  0  0
 20 22  1  0  0  0
 20 38  1  0  0  0
 20 39  1  0  0  0
 21 23  1  0  0  0
 21 24  1  0  0  0
 21 40  1  0  0  0
 22 25  1  0  0  0
 22 41  1  0  0  0
 22 42  1  0  0  0
 23 43  1  0  0  0
 23 44  1  0  0  0
 23 45  1  0  0  0
 24 46  1  0  0  0
 24 47  1  0  0  0
 24 48  1  0  0  0
 25 49  1  0  0  0
 25 50  1  0  0  0
M  END
$$$$
