TF4
  CCTOOLS-0919241034

  8  7  0  0  0  0  0  0  0  0999 V2000
   -0.1820   -0.0940   -0.5410 C   0  0  0  0  0
    1.1350    0.4650   -0.0680 C   0  0  0  0  0
    1.1750    1.5480    0.4660 O   0  0  0  0  0
   -0.4410   -1.7220    0.1890 CL  0  0  0  0  0
   -1.5180    1.0080   -0.0400 CL  0  0  0  0  0
    2.2640   -0.2400   -0.2400 O   0  0  0  0  0
   -0.1710   -0.1810   -1.6280 H   0  0  0  0  0
    3.1090    0.1190    0.0630 H   0  0  0  0  0
  1  2  1  0  0  0
  1  4  1  0  0  0
  1  5  1  0  0  0
  1  7  1  0  0  0
  2  3  2  0  0  0
  2  6  1  0  0  0
  6  8  1  0  0  0
M  END
$$$$
