TG1
  CCTOOLS-0919241034

 96 98  0  0  1  0  0  0  0  0999 V2000
   -4.1720   -0.3920   -3.9150 C   0  0  0  0  0
   -4.3800   -0.4800   -2.4020 C   0  0  0  0  0
   -3.1340    0.0160   -1.6570 C   0  0  0  0  0
   -3.2790    1.3320   -0.9640 C   0  0  0  0  0
   -1.9520    2.0200   -0.7690 C   0  0  0  0  0
   -1.0480    1.2090    0.1610 C   0  0  0  0  0
   -0.4300    0.0290   -0.4710 C   0  0  0  0  0
    0.9490   -0.3970    0.0060 C   0  0  0  0  0
    1.9800    0.1140   -0.8790 O   0  0  0  0  0
    3.1780    0.3760   -0.3320 C   0  0  0  0  0
    3.3580    0.1850    0.8470 O   0  0  0  0  0
    4.2970    0.9090   -1.1890 C   0  0  0  0  0
    5.5430    1.1200   -0.3270 C   0  0  0  0  0
    6.6790    1.6620   -1.1970 C   0  0  0  0  0
    7.9250    1.8730   -0.3350 C   0  0  0  0  0
    9.0620    2.4140   -1.2040 C   0  0  0  0  0
   10.3080    2.6250   -0.3420 C   0  0  0  0  0
   11.4440    3.1660   -1.2120 C   0  0  0  0  0
    0.8780   -1.9380   -0.0700 C   0  0  0  0  0
    1.2300   -2.5180    1.2140 O   0  0  0  0  0
    1.8120   -3.7340    1.1970 C   0  0  0  0  0
    2.0190   -4.2940    0.1390 O   0  0  0  0  0
    2.1950   -4.3820    2.4590 C   0  0  0  0  0
    1.9390   -3.6870    3.7710 C   0  0  0  0  0
    2.7700   -5.5820    2.4430 C   0  0  0  0  0
    3.0260   -6.2770    1.1300 C   0  0  0  0  0
   -0.5500   -2.2780   -0.4180 C   0  0  0  0  0
   -1.0730   -3.6850   -0.5500 C   0  0  0  0  0
   -1.2750   -1.2120   -0.5900 C   0  0  0  0  0
   -2.7730   -1.1470   -0.7600 C   0  0  0  0  0
   -3.3350   -2.3160   -1.4120 O   0  0  0  0  0
   -4.5120   -1.9320   -1.9640 C   0  0  0  0  0
   -5.4960   -2.6230   -2.0880 O   0  0  0  0  0
   -1.8780    0.7400    1.3580 C   0  0  0  0  0
    0.0090    2.0760    0.6490 O   0  0  0  0  0
   -0.3670    3.1610    1.3460 C   0  0  0  0  0
   -1.5390    3.3780    1.5410 O   0  0  0  0  0
    0.6750    4.1080    1.8850 C   0  0  0  0  0
   -3.8930    1.1160    0.3340 O   0  0  0  0  0
   -4.6480    2.1120    0.8250 C   0  0  0  0  0
   -4.7910    3.1300    0.1910 O   0  0  0  0  0
   -5.3170    1.9590    2.1670 C   0  0  0  0  0
   -6.1100    3.2280    2.4880 C   0  0  0  0  0
   -6.7900    3.0730    3.8500 C   0  0  0  0  0
   -2.0840    0.1440   -2.6180 O   0  0  0  0  0
   -5.5310    0.2710   -2.0110 O   0  0  0  0  0
   -3.3200   -1.0090   -4.2010 H   0  0  0  0  0
   -5.0660   -0.7480   -4.4270 H   0  0  0  0  0
   -3.9810    0.6430   -4.1960 H   0  0  0  0  0
   -3.9280    1.9760   -1.5580 H   0  0  0  0  0
   -1.4620    2.1330   -1.7360 H   0  0  0  0  0
   -2.1190    3.0060   -0.3350 H   0  0  0  0  0
   -0.2700    0.3250   -1.5080 H   0  0  0  0  0
    1.1220   -0.0660    1.0300 H   0  0  0  0  0
    4.5200    0.1950   -1.9810 H   0  0  0  0  0
    3.9960    1.8590   -1.6310 H   0  0  0  0  0
    5.3200    1.8350    0.4650 H   0  0  0  0  0
    5.8440    0.1710    0.1150 H   0  0  0  0  0
    6.9030    0.9470   -1.9890 H   0  0  0  0  0
    6.3780    2.6110   -1.6380 H   0  0  0  0  0
    7.7020    2.5870    0.4580 H   0  0  0  0  0
    8.2270    0.9230    0.1070 H   0  0  0  0  0
    9.2850    1.6990   -1.9970 H   0  0  0  0  0
    8.7600    3.3640   -1.6460 H   0  0  0  0  0
   10.0850    3.3400    0.4500 H   0  0  0  0  0
   10.6090    1.6750    0.1000 H   0  0  0  0  0
   11.6670    2.4520   -2.0040 H   0  0  0  0  0
   11.1430    4.1160   -1.6540 H   0  0  0  0  0
   12.3320    3.3170   -0.5980 H   0  0  0  0  0
    1.5510   -2.3060   -0.8440 H   0  0  0  0  0
    0.9510   -3.9630    4.1410 H   0  0  0  0  0
    2.6950   -3.9880    4.4960 H   0  0  0  0  0
    1.9840   -2.6080    3.6260 H   0  0  0  0  0
    3.0520   -6.0590    3.3700 H   0  0  0  0  0
    3.4990   -7.2410    1.3160 H   0  0  0  0  0
    2.0810   -6.4300    0.6090 H   0  0  0  0  0
    3.6840   -5.6620    0.5160 H   0  0  0  0  0
   -0.2670   -4.3920   -0.3580 H   0  0  0  0  0
   -1.8750   -3.8430    0.1700 H   0  0  0  0  0
   -1.4560   -3.8360   -1.5600 H   0  0  0  0  0
   -3.2460   -1.0190    0.2130 H   0  0  0  0  0
   -2.5670   -0.0410    1.0380 H   0  0  0  0  0
   -1.2140    0.3470    2.1280 H   0  0  0  0  0
   -2.4430    1.5810    1.7600 H   0  0  0  0  0
    1.6670    3.7500    1.6110 H   0  0  0  0  0
    0.5160    5.1000    1.4620 H   0  0  0  0  0
    0.5930    4.1580    2.9700 H   0  0  0  0  0
   -5.9930    1.1050    2.1410 H   0  0  0  0  0
   -4.5600    1.8000    2.9340 H   0  0  0  0  0
   -5.4340    4.0820    2.5140 H   0  0  0  0  0
   -6.8680    3.3870    1.7200 H   0  0  0  0  0
   -7.4660    2.2180    3.8240 H   0  0  0  0  0
   -6.0320    2.9140    4.6180 H   0  0  0  0  0
   -7.3550    3.9770    4.0790 H   0  0  0  0  0
   -2.2690    0.7820   -3.3200 H   0  0  0  0  0
   -6.3530   -0.0210   -2.4290 H   0  0  0  0  0
  1  2  1  0  0  0
  1 47  1  0  0  0
  1 48  1  0  0  0
  1 49  1  0  0  0
  2  3  1  0  0  0
  2 32  1  0  0  0
  2 46  1  0  0  0
  3  4  1  0  0  0
  3 30  1  0  0  0
  3 45  1  0  0  0
  4  5  1  0  0  0
  4 39  1  0  0  0
  4 50  1  0  0  0
  5  6  1  0  0  0
  5 51  1  0  0  0
  5 52  1  0  0  0
  6  7  1  0  0  0
  6 34  1  0  0  0
  6 35  1  0  0  0
  7  8  1  0  0  0
  7 29  1  0  0  0
  7 53  1  0  0  0
  8  9  1  0  0  0
  8 19  1  0  0  0
  8 54  1  0  0  0
  9 10  1  0  0  0
 10 11  2  0  0  0
 10 12  1  0  0  0
 12 13  1  0  0  0
 12 55  1  0  0  0
 12 56  1  0  0  0
 13 14  1  0  0  0
 13 57  1  0  0  0
 13 58  1  0  0  0
 14 15  1  0  0  0
 14 59  1  0  0  0
 14 60  1  0  0  0
 15 16  1  0  0  0
 15 61  1  0  0  0
 15 62  1  0  0  0
 16 17  1  0  0  0
 16 63  1  0  0  0
 16 64  1  0  0  0
 17 18  1  0  0  0
 17 65  1  0  0  0
 17 66  1  0  0  0
 18 67  1  0  0  0
 18 68  1  0  0  0
 18 69  1  0  0  0
 19 20  1  0  0  0
 19 27  1  0  0  0
 19 70  1  0  0  0
 20 21  1  0  0  0
 21 22  2  0  0  0
 21 23  1  0  0  0
 23 24  1  0  0  0
 23 25  2  0  0  0
 24 71  1  0  0  0
 24 72  1  0  0  0
 24 73  1  0  0  0
 25 26  1  0  0  0
 25 74  1  0  0  0
 26 75  1  0  0  0
 26 76  1  0  0  0
 26 77  1  0  0  0
 27 28  1  0  0  0
 27 29  2  0  0  0
 28 78  1  0  0  0
 28 79  1  0  0  0
 28 80  1  0  0  0
 29 30  1  0  0  0
 30 31  1  0  0  0
 30 81  1  0  0  0
 31 32  1  0  0  0
 32 33  2  0  0  0
 34 82  1  0  0  0
 34 83  1  0  0  0
 34 84  1  0  0  0
 35 36  1  0  0  0
 36 37  2  0  0  0
 36 38  1  0  0  0
 38 85  1  0  0  0
 38 86  1  0  0  0
 38 87  1  0  0  0
 39 40  1  0  0  0
 40 41  2  0  0  0
 40 42  1  0  0  0
 42 43  1  0  0  0
 42 88  1  0  0  0
 42 89  1  0  0  0
 43 44  1  0  0  0
 43 90  1  0  0  0
 43 91  1  0  0  0
 44 92  1  0  0  0
 44 93  1  0  0  0
 44 94  1  0  0  0
 45 95  1  0  0  0
 46 96  1  0  0  0
M  END
$$$$
