THA
  CCTOOLS-0919241034

 29 31  0  0  0  0  0  0  0  0999 V2000
   -0.9610   -0.0190    3.6360 C   0  0  0  0  0
   -1.6300   -0.0330    2.4510 C   0  0  0  0  0
   -0.9110   -0.0190    1.2430 C   0  0  0  0  0
    0.5030    0.0040    1.2870 C   0  0  0  0  0
    1.1600    0.0240    2.5240 C   0  0  0  0  0
    0.4300    0.0090    3.6750 C   0  0  0  0  0
   -1.5360   -0.0320    0.0650 N   0  0  0  0  0
   -0.8860   -0.0210   -1.0860 C   0  0  0  0  0
    0.4960    0.0100   -1.1220 C   0  0  0  0  0
    1.2170    0.0260    0.0680 C   0  0  0  0  0
   -1.7200   -0.0460   -2.3430 C   0  0  0  0  0
   -0.8950    0.4060   -3.5450 C   0  0  0  0  0
    0.4010   -0.4100   -3.5780 C   0  0  0  0  0
    1.2780    0.0330   -2.4090 C   0  0  0  0  0
    2.6030    0.0570    0.0580 N   0  0  0  0  0
   -1.5180   -0.0300    4.5610 H   0  0  0  0  0
   -2.7100   -0.0550    2.4380 H   0  0  0  0  0
    2.2390    0.0460    2.5660 H   0  0  0  0  0
    0.9370    0.0200    4.6280 H   0  0  0  0  0
   -2.5730    0.6200   -2.2210 H   0  0  0  0  0
   -2.0800   -1.0600   -2.5150 H   0  0  0  0  0
   -0.6580    1.4660   -3.4490 H   0  0  0  0  0
   -1.4590    0.2350   -4.4620 H   0  0  0  0  0
    0.9240   -0.2320   -4.5170 H   0  0  0  0  0
    0.1700   -1.4710   -3.4810 H   0  0  0  0  0
    1.6370    1.0460   -2.5930 H   0  0  0  0  0
    2.1310   -0.6390   -2.3230 H   0  0  0  0  0
    3.0940    0.0680    0.8940 H   0  0  0  0  0
    3.0820    0.0630   -0.7850 H   0  0  0  0  0
  1  2  2  0  0  0
  1  6  1  0  0  0
  1 16  1  0  0  0
  2  3  1  0  0  0
  2 17  1  0  0  0
  3  4  2  0  0  0
  3  7  1  0  0  0
  4  5  1  0  0  0
  4 10  1  0  0  0
  5  6  2  0  0  0
  5 18  1  0  0  0
  6 19  1  0  0  0
  7  8  2  0  0  0
  8  9  1  0  0  0
  8 11  1  0  0  0
  9 10  2  0  0  0
  9 14  1  0  0  0
 10 15  1  0  0  0
 11 12  1  0  0  0
 11 20  1  0  0  0
 11 21  1  0  0  0
 12 13  1  0  0  0
 12 22  1  0  0  0
 12 23  1  0  0  0
 13 14  1  0  0  0
 13 24  1  0  0  0
 13 25  1  0  0  0
 14 26  1  0  0  0
 14 27  1  0  0  0
 15 28  1  0  0  0
 15 29  1  0  0  0
M  END
$$$$
