THG
  CCTOOLS-0919241034

 55 57  0  0  1  0  0  0  0  0999 V2000
    1.7630    1.4420    5.8580 N   0  0  0  0  0
    2.5100    0.3040    5.8440 C   0  0  0  0  0
    1.9800   -0.8650    5.5580 N   0  0  0  0  0
    0.6800   -0.9790    5.2630 C   0  0  0  0  0
   -0.1240    0.1510    5.2610 C   0  0  0  0  0
    0.4460    1.3920    5.5660 C   0  0  0  0  0
    0.1330   -2.2150    4.9560 N   0  0  0  0  0
   -1.3250   -2.3840    5.0100 C   0  0  0  0  0
   -1.9770   -1.1860    4.3030 C   0  0  0  0  0
   -1.4980    0.0430    4.9550 N   0  0  0  0  0
   -1.5770   -1.1770    2.8260 C   0  0  0  0  0
   -2.1740   -0.0140    2.1650 N   0  0  0  0  0
   -1.9500    0.2070    0.8110 C   0  0  0  0  0
   -2.5180    1.3130    0.1850 C   0  0  0  0  0
   -2.2980    1.5350   -1.1540 C   0  0  0  0  0
   -1.5030    0.6480   -1.8870 C   0  0  0  0  0
   -0.9340   -0.4600   -1.2550 C   0  0  0  0  0
   -1.1530   -0.6740    0.0860 C   0  0  0  0  0
   -1.2660    0.8830   -3.3240 C   0  0  0  0  0
   -0.5000    0.0270   -4.0290 N   0  0  0  0  0
   -0.2640    0.2610   -5.4560 C   0  0  0  0  0
   -1.3340   -0.4290   -6.2610 C   0  0  0  0  0
   -1.9080   -1.5490   -5.7940 O   0  0  0  0  0
   -1.6760    0.0240   -7.3270 O   0  0  0  0  0
    1.1060   -0.2970   -5.8440 C   0  0  0  0  0
    2.1920    0.4040   -5.0270 C   0  0  0  0  0
    3.5420   -0.1450   -5.4100 C   0  0  0  0  0
    3.6260   -1.0090   -6.2500 O   0  0  0  0  0
    4.6510    0.3240   -4.8170 O   0  0  0  0  0
   -1.7620    1.8480   -3.8720 O   0  0  0  0  0
   -0.2330    2.4070    5.5720 O   0  0  0  0  0
    3.8480    0.3780    6.1400 N   0  0  0  0  0
    2.1800    2.2910    6.0720 H   0  0  0  0  0
    0.7050   -2.9590    4.7110 H   0  0  0  0  0
   -1.6530   -2.4200    6.0480 H   0  0  0  0  0
   -1.6070   -3.3070    4.5030 H   0  0  0  0  0
   -3.0610   -1.2510    4.3900 H   0  0  0  0  0
   -2.1130    0.7620    5.1700 H   0  0  0  0  0
   -0.4910   -1.1240    2.7440 H   0  0  0  0  0
   -1.9330   -2.0890    2.3480 H   0  0  0  0  0
   -2.7250    0.6010    2.6730 H   0  0  0  0  0
   -3.1320    1.9970    0.7510 H   0  0  0  0  0
   -2.7390    2.3930   -1.6400 H   0  0  0  0  0
   -0.3200   -1.1470   -1.8190 H   0  0  0  0  0
   -0.7140   -1.5310    0.5740 H   0  0  0  0  0
   -0.1040   -0.7420   -3.5920 H   0  0  0  0  0
   -0.2910    1.3310   -5.6590 H   0  0  0  0  0
   -2.5950   -1.9930   -6.3110 H   0  0  0  0  0
    1.1330   -1.3670   -5.6420 H   0  0  0  0  0
    1.2810   -0.1230   -6.9060 H   0  0  0  0  0
    2.1650    1.4740   -5.2300 H   0  0  0  0  0
    2.0170    0.2300   -3.9650 H   0  0  0  0  0
    5.5170   -0.0280   -5.0620 H   0  0  0  0  0
    4.3900   -0.4250    6.1380 H   0  0  0  0  0
    4.2520    1.2350    6.3490 H   0  0  0  0  0
  1  2  1  0  0  0
  1  6  1  0  0  0
  1 33  1  0  0  0
  2  3  2  0  0  0
  2 32  1  0  0  0
  3  4  1  0  0  0
  4  5  2  0  0  0
  4  7  1  0  0  0
  5  6  1  0  0  0
  5 10  1  0  0  0
  6 31  2  0  0  0
  7  8  1  0  0  0
  7 34  1  0  0  0
  8  9  1  0  0  0
  8 35  1  0  0  0
  8 36  1  0  0  0
  9 10  1  0  0  0
  9 11  1  0  0  0
  9 37  1  0  0  0
 10 38  1  0  0  0
 11 12  1  0  0  0
 11 39  1  0  0  0
 11 40  1  0  0  0
 12 13  1  0  0  0
 12 41  1  0  0  0
 13 14  2  0  0  0
 13 18  1  0  0  0
 14 15  1  0  0  0
 14 42  1  0  0  0
 15 16  2  0  0  0
 15 43  1  0  0  0
 16 17  1  0  0  0
 16 19  1  0  0  0
 17 18  2  0  0  0
 17 44  1  0  0  0
 18 45  1  0  0  0
 19 20  1  0  0  0
 19 30  2  0  0  0
 20 21  1  0  0  0
 20 46  1  0  0  0
 21 22  1  0  0  0
 21 25  1  0  0  0
 21 47  1  0  0  0
 22 23  1  0  0  0
 22 24  2  0  0  0
 23 48  1  0  0  0
 25 26  1  0  0  0
 25 49  1  0  0  0
 25 50  1  0  0  0
 26 27  1  0  0  0
 26 51  1  0  0  0
 26 52  1  0  0  0
 27 28  2  0  0  0
 27 29  1  0  0  0
 29 53  1  0  0  0
 32 54  1  0  0  0
 32 55  1  0  0  0
M  END
$$$$
