THP
  CCTOOLS-0919241034

 41 42  0  0  1  0  0  0  0  0999 V2000
    2.6940    0.1810   -3.2890 P   0  0  0  0  0
    2.7960    1.5670   -2.7800 O   0  0  0  0  0
    4.1620   -0.3580   -3.6700 O   0  0  0  0  0
    1.7570    0.1580   -4.5980 O   0  0  0  0  0
   -3.0720    0.1940   -1.9730 P   0  0  0  0  0
   -2.1060    1.0460   -2.7010 O   0  0  0  0  0
   -4.2010   -0.3300   -2.9940 O   0  0  0  0  0
   -3.7660    1.0500   -0.7990 O   0  0  0  0  0
    2.0530   -0.7610   -2.1530 O   0  0  0  0  0
    0.7580   -0.2330   -1.8590 C   0  0  0  0  0
    0.0910   -1.0880   -0.7800 C   0  0  0  0  0
    0.8070   -0.9850    0.4710 O   0  0  0  0  0
   -1.3170   -0.5370   -0.4410 C   0  0  0  0  0
   -2.3000   -1.0650   -1.3330 O   0  0  0  0  0
   -1.5340   -1.0670    0.9970 C   0  0  0  0  0
   -0.1110   -1.3630    1.5090 C   0  0  0  0  0
    0.1540   -0.5820    2.7190 N   0  0  0  0  0
    0.0950    0.7610    2.6710 C   0  0  0  0  0
   -0.1780    1.3110    1.6230 O   0  0  0  0  0
    0.3350    1.5030    3.7680 N   0  0  0  0  0
    0.6350    0.9070    4.9400 C   0  0  0  0  0
    0.8520    1.5790    5.9330 O   0  0  0  0  0
    0.7050   -0.5040    5.0030 C   0  0  0  0  0
    1.0430   -1.1950    6.2990 C   0  0  0  0  0
    0.4600   -1.2250    3.8880 C   0  0  0  0  0
    4.5090    0.2320   -4.3520 H   0  0  0  0  0
    1.7170   -0.7600   -4.8970 H   0  0  0  0  0
   -4.6380    0.4530   -3.3540 H   0  0  0  0  0
   -4.3860    0.4590   -0.3510 H   0  0  0  0  0
    0.1480   -0.2450   -2.7620 H   0  0  0  0  0
    0.8570    0.7910   -1.5010 H   0  0  0  0  0
    0.0290   -2.1280   -1.1000 H   0  0  0  0  0
   -1.3230    0.5520   -0.4580 H   0  0  0  0  0
   -2.1310   -1.9790    0.9810 H   0  0  0  0  0
   -2.0120   -0.3080    1.6150 H   0  0  0  0  0
   -0.0090   -2.4270    1.7250 H   0  0  0  0  0
    0.2880    2.4710    3.7160 H   0  0  0  0  0
    1.2060   -0.4480    7.0770 H   0  0  0  0  0
    0.2190   -1.8470    6.5890 H   0  0  0  0  0
    1.9480   -1.7880    6.1700 H   0  0  0  0  0
    0.5050   -2.3030    3.9180 H   0  0  0  0  0
  1  2  2  0  0  0
  1  3  1  0  0  0
  1  4  1  0  0  0
  1  9  1  0  0  0
  3 26  1  0  0  0
  4 27  1  0  0  0
  5  6  2  0  0  0
  5  7  1  0  0  0
  5  8  1  0  0  0
  5 14  1  0  0  0
  7 28  1  0  0  0
  8 29  1  0  0  0
  9 10  1  0  0  0
 10 11  1  0  0  0
 10 30  1  0  0  0
 10 31  1  0  0  0
 11 12  1  0  0  0
 11 13  1  0  0  0
 11 32  1  0  0  0
 12 16  1  0  0  0
 13 14  1  0  0  0
 13 15  1  0  0  0
 13 33  1  0  0  0
 15 16  1  0  0  0
 15 34  1  0  0  0
 15 35  1  0  0  0
 16 17  1  0  0  0
 16 36  1  0  0  0
 17 18  1  0  0  0
 17 25  1  0  0  0
 18 19  2  0  0  0
 18 20  1  0  0  0
 20 21  1  0  0  0
 20 37  1  0  0  0
 21 22  2  0  0  0
 21 23  1  0  0  0
 23 24  1  0  0  0
 23 25  2  0  0  0
 24 38  1  0  0  0
 24 39  1  0  0  0
 24 40  1  0  0  0
 25 41  1  0  0  0
M  END
$$$$
