TIY
  CCTOOLS-0919241034

 24 25  0  0  0  0  0  0  0  0999 V2000
   -2.4740    0.8220    0.0230 C   0  0  0  0  0
   -2.2250   -0.5530    0.0290 C   0  0  0  0  0
   -0.6910   -2.3710    0.0290 O   0  0  0  0  0
   -0.9270   -1.0320    0.0240 C   0  0  0  0  0
    0.1450   -0.1280    0.0120 C   0  0  0  0  0
   -0.1110    1.2670    0.0070 C   0  0  0  0  0
    0.8240    2.3270   -0.0040 C   0  0  0  0  0
    2.1820    2.2620   -0.0120 C   0  0  0  0  0
    3.0280    1.1510   -0.0120 C   0  0  0  0  0
    2.7260   -0.1900   -0.0040 C   0  0  0  0  0
    1.4440   -0.8030    0.0080 C   0  0  0  0  0
    1.4240   -2.0240    0.0150 O   0  0  0  0  0
    3.7870   -1.0360   -0.0080 O   0  0  0  0  0
   -1.4330    1.7270    0.0060 C   0  0  0  0  0
   -3.7560    1.2730    0.0290 O   0  0  0  0  0
   -3.2660   -1.4280    0.0410 O   0  0  0  0  0
   -0.6290   -2.7620   -0.8530 H   0  0  0  0  0
    2.6850    3.2180   -0.0200 H   0  0  0  0  0
    4.0830    1.3810   -0.0200 H   0  0  0  0  0
    4.6460   -0.5910   -0.0150 H   0  0  0  0  0
   -1.6370    2.7880   -0.0030 H   0  0  0  0  0
   -4.1340    1.3950   -0.8530 H   0  0  0  0  0
   -3.5730   -1.6860   -0.8390 H   0  0  0  0  0
    0.4030    3.3210   -0.0060 H   0  0  0  0  0
  1 15  1  0  0  0
  1 14  1  0  0  0
  2  1  2  0  0  0
  3  4  1  0  0  0
  3 17  1  0  0  0
  4  2  1  0  0  0
  4  5  2  0  0  0
  5  6  1  0  0  0
  6 14  2  0  0  0
  6  7  1  0  0  0
  7  8  2  0  0  0
  7 24  1  0  0  0
  8 18  1  0  0  0
  9  8  1  0  0  0
  9 19  1  0  0  0
 10  9  2  0  0  0
 11  5  1  0  0  0
 11 10  1  0  0  0
 12 11  2  0  0  0
 13 10  1  0  0  0
 13 20  1  0  0  0
 14 21  1  0  0  0
 15 22  1  0  0  0
 16  2  1  0  0  0
 16 23  1  0  0  0
M  END
$$$$
