TJF
  CCTOOLS-0919241034

 52 55  0  0  0  0  0  0  0  0999 V2000
    8.2090    2.4540    0.7720 C   0  0  0  0  0
    7.6310    1.3470    0.0050 N   0  0  0  0  0
    6.2910    1.0440    0.1330 C   0  0  0  0  0
    5.4560    1.6760    0.9050 N   0  0  0  0  0
    4.2120    1.2590    0.9090 C   0  0  0  0  0
    3.1380    1.8970    1.7530 C   0  0  0  0  0
    3.9740    0.2080    0.0910 C   0  0  0  0  0
    2.6810   -0.4620   -0.1030 C   0  0  0  0  0
    1.5960   -0.0500    0.5540 N   0  0  0  0  0
    0.4310   -0.6520    0.3800 C   0  0  0  0  0
   -4.2870   -0.8820    0.9180 C   0  0  0  0  0
   -0.6700   -0.1950    1.0800 N   0  0  0  0  0
   -1.8830   -0.8860    1.0050 C   0  0  0  0  0
   -1.8890   -2.2750    0.9460 C   0  0  0  0  0
   -3.0850   -2.9630    0.8680 C   0  0  0  0  0
   -4.2820   -2.2760    0.8580 C   0  0  0  0  0
   -5.0420    1.6670   -2.0990 C   0  0  0  0  0
   -6.2420    2.4440   -2.1130 O   0  0  0  0  0
   -4.5820    1.4760   -0.6490 C   0  0  0  0  0
   -5.7120    0.9470    0.1300 N   0  0  0  0  0
   -5.5680   -0.1440    0.9090 C   0  0  0  0  0
   -6.4910   -0.5200    1.6050 O   0  0  0  0  0
   -7.0050    1.6430    0.0350 C   0  0  0  0  0
   -7.3470    1.8270   -1.4490 C   0  0  0  0  0
   -3.0800   -0.1870    0.9910 C   0  0  0  0  0
    0.2840   -1.6820   -0.4460 N   0  0  0  0  0
    1.3050   -2.1560   -1.1370 C   0  0  0  0  0
    2.5600   -1.5550   -0.9980 C   0  0  0  0  0
    3.6910   -2.0330   -1.7330 C   0  0  0  0  0
    4.5890   -2.4130   -2.3170 N   0  0  0  0  0
    5.4890   -0.2120   -0.7050 S   0  0  0  0  0
    9.2700    2.5410    0.5410 H   0  0  0  0  0
    7.7020    3.3820    0.5080 H   0  0  0  0  0
    8.0830    2.2620    1.8380 H   0  0  0  0  0
    8.1910    0.8280   -0.5930 H   0  0  0  0  0
    2.6600    2.6980    1.1890 H   0  0  0  0  0
    2.3940    1.1480    2.0220 H   0  0  0  0  0
    3.5840    2.3080    2.6590 H   0  0  0  0  0
   -0.6000    0.6060    1.6220 H   0  0  0  0  0
   -0.9550   -2.8180    0.9570 H   0  0  0  0  0
   -3.0830   -4.0420    0.8210 H   0  0  0  0  0
   -5.2150   -2.8180    0.8060 H   0  0  0  0  0
   -5.2320    0.6940   -2.5520 H   0  0  0  0  0
   -4.2650    2.1850   -2.6620 H   0  0  0  0  0
   -3.7520    0.7700   -0.6170 H   0  0  0  0  0
   -4.2660    2.4330   -0.2350 H   0  0  0  0  0
   -7.7790    1.0490    0.5190 H   0  0  0  0  0
   -6.9330    2.6180    0.5180 H   0  0  0  0  0
   -8.2290    2.4600   -1.5430 H   0  0  0  0  0
   -7.5460    0.8540   -1.8990 H   0  0  0  0  0
   -3.0770    0.8920    1.0370 H   0  0  0  0  0
    1.1710   -2.9940   -1.8050 H   0  0  0  0  0
  1  2  1  0  0  0
  1 32  1  0  0  0
  1 33  1  0  0  0
  1 34  1  0  0  0
  2  3  1  0  0  0
  2 35  1  0  0  0
  3  4  2  0  0  0
  3 31  1  0  0  0
  4  5  1  0  0  0
  5  6  1  0  0  0
  5  7  2  0  0  0
  6 36  1  0  0  0
  6 37  1  0  0  0
  6 38  1  0  0  0
  7  8  1  0  0  0
  7 31  1  0  0  0
  8  9  2  0  0  0
  8 28  1  0  0  0
  9 10  1  0  0  0
 10 12  1  0  0  0
 10 26  2  0  0  0
 11 16  2  0  0  0
 11 21  1  0  0  0
 11 25  1  0  0  0
 12 13  1  0  0  0
 12 39  1  0  0  0
 13 14  1  0  0  0
 13 25  2  0  0  0
 14 15  2  0  0  0
 14 40  1  0  0  0
 15 16  1  0  0  0
 15 41  1  0  0  0
 16 42  1  0  0  0
 17 18  1  0  0  0
 17 19  1  0  0  0
 17 43  1  0  0  0
 17 44  1  0  0  0
 18 24  1  0  0  0
 19 20  1  0  0  0
 19 45  1  0  0  0
 19 46  1  0  0  0
 20 21  1  0  0  0
 20 23  1  0  0  0
 21 22  2  0  0  0
 23 24  1  0  0  0
 23 47  1  0  0  0
 23 48  1  0  0  0
 24 49  1  0  0  0
 24 50  1  0  0  0
 25 51  1  0  0  0
 26 27  1  0  0  0
 27 28  2  0  0  0
 27 52  1  0  0  0
 28 29  1  0  0  0
 29 30  3  0  0  0
M  END
$$$$
