TN1
  CCTOOLS-0919241035

 23 24  0  0  0  0  0  0  0  0999 V2000
    0.0450    0.3910    0.0280 C   0  0  0  0  0
    1.3960    0.7310    0.0440 C   0  0  0  0  0
    2.3680   -0.2560    0.0150 C   0  0  0  0  0
    1.9930   -1.5840   -0.0350 C   0  0  0  0  0
    0.6550   -1.9200   -0.0590 C   0  0  0  0  0
   -0.3230   -0.9340   -0.0310 C   0  0  0  0  0
   -1.7640   -1.3740   -0.0670 C   0  0  0  0  0
   -2.6820   -0.2450    0.3960 C   0  0  0  0  0
   -2.3320    1.0190   -0.3980 C   0  0  0  0  0
   -0.9610    1.5120    0.0620 C   0  0  0  0  0
    1.7630    2.0380    0.0940 O   0  0  0  0  0
    3.4140    0.0130    0.0320 H   0  0  0  0  0
    2.7460   -2.3590   -0.0560 H   0  0  0  0  0
    0.3650   -2.9590   -0.1000 H   0  0  0  0  0
   -2.0280   -1.6570   -1.0860 H   0  0  0  0  0
   -1.8930   -2.2350    0.5890 H   0  0  0  0  0
   -3.7210   -0.5180    0.2120 H   0  0  0  0  0
   -2.5330   -0.0640    1.4600 H   0  0  0  0  0
   -2.3010    0.7880   -1.4620 H   0  0  0  0  0
   -3.0800    1.7890   -0.2100 H   0  0  0  0  0
   -0.6290    2.3160   -0.5950 H   0  0  0  0  0
   -1.0380    1.8900    1.0810 H   0  0  0  0  0
    1.8450    2.3400   -0.8210 H   0  0  0  0  0
  1  2  2  0  0  0
  1  6  1  0  0  0
  1 10  1  0  0  0
  2  3  1  0  0  0
  2 11  1  0  0  0
  3  4  2  0  0  0
  3 12  1  0  0  0
  4  5  1  0  0  0
  4 13  1  0  0  0
  5  6  2  0  0  0
  5 14  1  0  0  0
  6  7  1  0  0  0
  7  8  1  0  0  0
  7 15  1  0  0  0
  7 16  1  0  0  0
  8  9  1  0  0  0
  8 17  1  0  0  0
  8 18  1  0  0  0
  9 10  1  0  0  0
  9 19  1  0  0  0
  9 20  1  0  0  0
 10 21  1  0  0  0
 10 22  1  0  0  0
 11 23  1  0  0  0
M  END
$$$$
