TOP
  CCTOOLS-0919241035

 39 40  0  0  0  0  0  0  0  0999 V2000
   -1.4240   -0.4800    2.5680 C   0  0  0  0  0
   -1.4980    0.4020    3.5520 N   0  0  0  0  0
   -0.4010    0.9090    4.0970 C   0  0  0  0  0
   -0.5200    1.8290    5.1230 N   0  0  0  0  0
    0.8060    0.5570    3.6830 N   0  0  0  0  0
    0.9540   -0.3280    2.7020 C   0  0  0  0  0
    2.2180   -0.6940    2.2710 N   0  0  0  0  0
   -0.1830   -0.8750    2.1050 C   0  0  0  0  0
   -0.0610   -1.8770    0.9870 C   0  0  0  0  0
   -0.0380   -1.1550   -0.3340 C   0  0  0  0  0
    1.1660   -0.7480   -0.8770 C   0  0  0  0  0
    1.1920   -0.0830   -2.0930 C   0  0  0  0  0
    2.3770    0.3160   -2.6260 O   0  0  0  0  0
    3.3980   -0.0880   -1.7110 C   0  0  0  0  0
    0.0030    0.1790   -2.7640 C   0  0  0  0  0
    0.0240    0.8330   -3.9580 O   0  0  0  0  0
   -0.0850    2.2270   -3.6670 C   0  0  0  0  0
   -1.2040   -0.2350   -2.2180 C   0  0  0  0  0
   -2.3700    0.0140   -2.8730 O   0  0  0  0  0
   -3.4200   -0.5210   -2.0670 C   0  0  0  0  0
   -1.2210   -0.9000   -1.0010 C   0  0  0  0  0
   -2.3240   -0.8870    2.1310 H   0  0  0  0  0
   -1.3990    2.0950    5.4360 H   0  0  0  0  0
    0.2740    2.2080    5.5300 H   0  0  0  0  0
    3.0040   -0.3040    2.6850 H   0  0  0  0  0
    2.3180   -1.3410    1.5540 H   0  0  0  0  0
   -0.9120   -2.5580    1.0150 H   0  0  0  0  0
    0.8610   -2.4450    1.1070 H   0  0  0  0  0
    2.0890   -0.9490   -0.3530 H   0  0  0  0  0
    4.3720    0.2120   -2.0980 H   0  0  0  0  0
    3.2290    0.3860   -0.7450 H   0  0  0  0  0
    3.3720   -1.1710   -1.5940 H   0  0  0  0  0
   -0.0730    2.7950   -4.5980 H   0  0  0  0  0
   -1.0200    2.4160   -3.1390 H   0  0  0  0  0
    0.7520    2.5360   -3.0430 H   0  0  0  0  0
   -4.3790   -0.3430   -2.5540 H   0  0  0  0  0
   -3.2710   -1.5930   -1.9400 H   0  0  0  0  0
   -3.4130   -0.0350   -1.0910 H   0  0  0  0  0
   -2.1610   -1.2200   -0.5750 H   0  0  0  0  0
  1  2  2  0  0  0
  1  8  1  0  0  0
  1 22  1  0  0  0
  2  3  1  0  0  0
  3  4  1  0  0  0
  3  5  2  0  0  0
  4 23  1  0  0  0
  4 24  1  0  0  0
  5  6  1  0  0  0
  6  7  1  0  0  0
  6  8  2  0  0  0
  7 25  1  0  0  0
  7 26  1  0  0  0
  8  9  1  0  0  0
  9 10  1  0  0  0
  9 27  1  0  0  0
  9 28  1  0  0  0
 10 11  2  0  0  0
 10 21  1  0  0  0
 11 12  1  0  0  0
 11 29  1  0  0  0
 12 13  1  0  0  0
 12 15  2  0  0  0
 13 14  1  0  0  0
 14 30  1  0  0  0
 14 31  1  0  0  0
 14 32  1  0  0  0
 15 16  1  0  0  0
 15 18  1  0  0  0
 16 17  1  0  0  0
 17 33  1  0  0  0
 17 34  1  0  0  0
 17 35  1  0  0  0
 18 19  1  0  0  0
 18 21  2  0  0  0
 19 20  1  0  0  0
 20 36  1  0  0  0
 20 37  1  0  0  0
 20 38  1  0  0  0
 21 39  1  0  0  0
M  END
$$$$
