TP8
  CCTOOLS-0919241035

 56 57  0  0  1  0  0  0  0  0999 V2000
    4.3210   -1.5700   -1.0490 C   0  0  0  0  0
    6.9020   -2.2840   -3.8010 C   0  0  0  0  0
    7.1150   -3.1340   -2.7420 C   0  0  0  0  0
    6.2180   -2.9230   -1.7240 N   0  3  0  0  0
    5.3370   -1.9730   -1.9320 C   0  0  0  0  0
    7.6230   -2.1690   -5.0850 C   0  0  0  0  0
    0.0900   -4.3100    2.1430 O   0  5  0  0  0
    0.2670   -2.9350    1.5350 P   0  0  0  0  0
   -0.9020   -2.2320    0.8790 O   0  0  0  0  0
    0.8900   -1.9500    2.6800 O   0  0  0  0  0
    1.5320   -2.9900    0.5050 O   0  0  0  0  0
    1.9060   -1.8130   -0.2010 C   0  0  0  0  0
    3.0820   -2.1320   -1.0690 C   0  0  0  0  0
    4.6840   -0.5690   -0.1570 O   0  0  0  0  0
    6.2430   -3.7030   -0.4950 C   0  0  0  0  0
    7.1370   -3.0490    0.5510 C   0  0  0  0  0
    7.2200   -3.9150    1.7780 C   0  0  0  0  0
    7.9770   -4.9610    1.8280 N   0  0  0  0  0
    6.4460   -3.5970    2.8610 N   0  0  0  0  0
    5.9000   -2.4220    2.9210 C   0  0  0  0  0
    5.0540   -2.0690    4.1120 C   0  0  0  0  0
    6.0170   -1.4140    1.9940 N   0  0  0  0  0
    6.6010   -1.6890    0.8750 C   0  0  0  0  0
    8.1320   -4.1840   -2.5800 C   0  0  0  0  0
    5.5700   -1.2490   -3.4640 S   0  0  0  0  0
    8.8000   -1.1840   -5.0450 C   0  0  0  0  0
    9.7560   -1.6260   -4.0890 O   0  0  0  0  0
   11.1110   -0.7430   -3.8560 P   0  0  0  0  0
   11.9450   -1.4310   -2.7970 O   0  5  0  0  0
   11.7140   -0.3800   -5.1960 O   0  0  0  0  0
   10.4530    0.6020   -3.2030 O   0  0  0  0  0
    9.5690    0.8050   -1.8460 P   0  0  0  0  0
    8.2350    0.1130   -2.0200 O   0  5  0  0  0
   10.4380    0.5230   -0.6400 O   0  0  0  0  0
    9.3320    2.4170   -1.9460 O   0  0  0  0  0
    4.3900   -0.8070    0.7250 H   0  0  0  0  0
    2.8910   -2.9180   -1.8010 H   0  0  0  0  0
    2.0980   -1.0260    0.5300 H   0  0  0  0  0
    1.0630   -1.5050   -0.8280 H   0  0  0  0  0
    0.8900   -0.9830    2.5170 H   0  0  0  0  0
    8.0030   -3.1560   -5.4110 H   0  0  0  0  0
    6.9330   -1.8410   -5.8840 H   0  0  0  0  0
    9.2970   -1.1380   -6.0190 H   0  0  0  0  0
    8.4670   -0.1770   -4.7720 H   0  0  0  0  0
    8.6500    2.7510   -2.5680 H   0  0  0  0  0
    9.0010   -4.0070   -3.2380 H   0  0  0  0  0
    8.5100   -4.2450   -1.5430 H   0  0  0  0  0
    7.7380   -5.1890   -2.8160 H   0  0  0  0  0
    5.2250   -3.7970   -0.1090 H   0  0  0  0  0
    6.6040   -4.7100   -0.7180 H   0  0  0  0  0
    8.1450   -2.9190    0.1400 H   0  0  0  0  0
    6.6970   -0.9030    0.1090 H   0  0  0  0  0
    8.4650   -5.0650    0.9330 H   0  0  0  0  0
    5.6460   -2.1740    5.0170 H   0  0  0  0  0
    4.1960   -2.7350    4.1550 H   0  0  0  0  0
    4.7070   -1.0430    4.0160 H   0  0  0  0  0
  1 14  1  0  0  0
  1 13  2  0  0  0
  1  5  1  0  0  0
  2  3  2  0  0  0
  2 25  1  0  0  0
  2  6  1  0  0  0
  3  4  1  0  0  0
  3 24  1  0  0  0
  4  5  2  0  0  0
  4 15  1  0  0  0
  5 25  1  0  0  0
  6 41  1  0  0  0
  6 42  1  0  0  0
  6 26  1  0  0  0
  7  8  1  0  0  0
  8 11  1  0  0  0
  8  9  2  0  0  0
  8 10  1  0  0  0
 10 40  1  0  0  0
 11 12  1  0  0  0
 12 13  1  0  0  0
 12 38  1  0  0  0
 12 39  1  0  0  0
 13 37  1  0  0  0
 14 36  1  0  0  0
 15 49  1  0  0  0
 15 50  1  0  0  0
 15 16  1  0  0  0
 16 51  1  0  0  0
 16 23  1  0  0  0
 16 17  1  0  0  0
 17 19  1  0  0  0
 17 18  2  0  0  0
 18 53  1  0  0  0
 19 20  2  0  0  0
 20 22  1  0  0  0
 20 21  1  0  0  0
 21 54  1  0  0  0
 21 55  1  0  0  0
 21 56  1  0  0  0
 22 23  2  0  0  0
 23 52  1  0  0  0
 24 46  1  0  0  0
 24 47  1  0  0  0
 24 48  1  0  0  0
 26 43  1  0  0  0
 26 44  1  0  0  0
 26 27  1  0  0  0
 27 28  1  0  0  0
 28 29  1  0  0  0
 28 30  2  0  0  0
 28 31  1  0  0  0
 31 32  1  0  0  0
 32 33  1  0  0  0
 32 34  2  0  0  0
 32 35  1  0  0  0
 35 45  1  0  0  0
M  CHG  1   4   1
M  CHG  1   7  -1
M  CHG  1  29  -1
M  CHG  1  33  -1
M  END
$$$$
