TP9
  CCTOOLS-0919241035

 43 43  0  0  0  0  0  0  0  0999 V2000
  -11.3070    5.4030    6.6220 N   0  0  0  0  0
  -12.0660    4.3390    6.9460 C   0  0  0  0  0
  -13.0310    4.5260    8.0670 C   0  0  0  0  0
  -12.0450    3.1230    6.3670 N   0  0  0  0  0
  -11.1600    2.9890    5.3570 C   0  0  0  0  0
  -11.0840    1.7350    4.7020 N   0  0  0  0  0
  -10.3360    4.0030    4.9410 C   0  0  0  0  0
  -10.4440    5.1980    5.6050 C   0  0  0  0  0
   -9.3520    3.8480    3.8170 C   0  0  0  0  0
   -8.0740    3.3960    4.2820 N   0  0  0  0  0
   -6.3310    1.8440    6.2100 S   0  0  0  0  0
   -6.7220    1.4140    4.5470 C   0  0  0  0  0
   -7.5490    2.2120    3.8240 C   0  0  0  0  0
   -7.9710    1.8840    2.4100 C   0  0  0  0  0
   -6.1240    0.1130    4.0380 C   0  0  0  0  0
   -6.9660   -1.1100    4.3950 C   0  0  0  0  0
   -8.2530   -1.0360    3.7980 O   0  0  0  0  0
   -9.3180   -2.2480    4.0530 P   0  0  0  0  0
  -10.5950   -1.9190    3.3110 O   0  5  0  0  0
   -8.6270   -3.5790    3.8450 O   0  0  0  0  0
   -9.5840   -2.0470    5.6530 O   0  0  0  0  0
  -10.5410   -2.8740    6.6860 P   0  0  0  0  0
  -10.2160   -2.0320    8.0470 O   0  0  0  0  0
  -11.9870   -2.6390    6.3120 O   0  5  0  0  0
   -9.9990   -4.2760    6.8500 O   0  0  0  0  0
  -10.6500   -1.1620    8.1730 H   0  0  0  0  0
   -7.0830   -1.2330    5.4770 H   0  0  0  0  0
   -6.4830   -2.0120    4.0070 H   0  0  0  0  0
   -5.9870    0.1630    2.9490 H   0  0  0  0  0
   -5.1130   -0.0150    4.4430 H   0  0  0  0  0
   -5.3740    0.9270    6.3750 H   0  0  0  0  0
   -7.5260    3.8960    4.9340 H   0  0  0  0  0
   -9.7180    3.1260    3.0800 H   0  0  0  0  0
   -9.2000    4.7980    3.2940 H   0  0  0  0  0
   -9.8340    6.0580    5.3460 H   0  0  0  0  0
  -11.7330    1.0210    4.9510 H   0  0  0  0  0
  -10.3260    1.5650    4.0760 H   0  0  0  0  0
  -13.7640    3.7100    8.0800 H   0  0  0  0  0
  -12.5170    4.5480    9.0370 H   0  0  0  0  0
  -13.5710    5.4770    7.9730 H   0  0  0  0  0
   -7.8900    2.7720    1.7730 H   0  0  0  0  0
   -7.3600    1.1130    1.9350 H   0  0  0  0  0
   -9.0140    1.5500    2.3980 H   0  0  0  0  0
  1  8  1  0  0  0
  1  2  2  0  0  0
  2  4  1  0  0  0
  2  3  1  0  0  0
  3 38  1  0  0  0
  3 39  1  0  0  0
  3 40  1  0  0  0
  4  5  2  0  0  0
  5  7  1  0  0  0
  5  6  1  0  0  0
  6 36  1  0  0  0
  6 37  1  0  0  0
  7  9  1  0  0  0
  7  8  2  0  0  0
  8 35  1  0  0  0
  9 10  1  0  0  0
  9 33  1  0  0  0
  9 34  1  0  0  0
 10 13  1  0  0  0
 10 32  1  0  0  0
 11 12  1  0  0  0
 11 31  1  0  0  0
 12 15  1  0  0  0
 12 13  2  0  0  0
 13 14  1  0  0  0
 14 41  1  0  0  0
 14 42  1  0  0  0
 14 43  1  0  0  0
 15 16  1  0  0  0
 15 29  1  0  0  0
 15 30  1  0  0  0
 16 17  1  0  0  0
 16 27  1  0  0  0
 16 28  1  0  0  0
 17 18  1  0  0  0
 18 21  1  0  0  0
 18 19  1  0  0  0
 18 20  2  0  0  0
 21 22  1  0  0  0
 22 23  1  0  0  0
 22 24  1  0  0  0
 22 25  2  0  0  0
 23 26  1  0  0  0
M  CHG  1  19  -1
M  CHG  1  24  -1
M  END
$$$$
