TPO
  CCTOOLS-1004241124

 22 21  0  0  1  0  0  0  0  0999 V2000
    1.1530   -1.0400    2.3770 N   0  0  0  0  0
    0.5720    0.1990    1.8440 C   0  0  0  0  0
    1.1110    0.4490    0.4340 C   0  0  0  0  0
    2.6340    0.5800    0.4850 C   0  0  0  0  0
    0.7550   -0.6450   -0.4120 O   0  0  0  0  0
   -0.1420   -0.0390   -1.6030 P   0  0  0  0  0
    0.6440    0.9680   -2.3500 O   0  0  0  0  0
   -0.5800   -1.2240   -2.6010 O   0  0  0  0  0
   -1.4560    0.6560   -0.9850 O   0  0  0  0  0
   -0.9270    0.0700    1.7940 C   0  0  0  0  0
   -1.4350   -1.0120    1.6260 O   0  0  0  0  0
   -1.7000    1.1590    1.9350 O   0  0  0  0  0
    2.1540   -0.9490    2.2960 H   0  0  0  0  0
    0.8770   -1.7820    1.7510 H   0  0  0  0  0
    0.8440    1.0340    2.4900 H   0  0  0  0  0
    0.6800    1.3690    0.0390 H   0  0  0  0  0
    3.0650   -0.3390    0.8810 H   0  0  0  0  0
    3.0180    0.7580   -0.5180 H   0  0  0  0  0
    2.9060    1.4150    1.1310 H   0  0  0  0  0
   -1.1140   -0.8190   -3.2980 H   0  0  0  0  0
   -1.9380   -0.0330   -0.5090 H   0  0  0  0  0
   -2.6620    1.0760    1.9020 H   0  0  0  0  0
  1  2  1  0  0  0
  1 13  1  0  0  0
  1 14  1  0  0  0
  2  3  1  0  0  0
  2 10  1  0  0  0
  2 15  1  0  0  0
  3  4  1  0  0  0
  3  5  1  0  0  0
  3 16  1  0  0  0
  4 17  1  0  0  0
  4 18  1  0  0  0
  4 19  1  0  0  0
  5  6  1  0  0  0
  6  7  2  0  0  0
  6  8  1  0  0  0
  6  9  1  0  0  0
  8 20  1  0  0  0
  9 21  1  0  0  0
 10 11  2  0  0  0
 10 12  1  0  0  0
 12 22  1  0  0  0
M  END
$$$$
