TRC
  CCTOOLS-0919241035

 20 19  0  0  0  0  0  0  0  0999 V2000
    1.2390    0.0470    1.7190 C   0  0  0  0  0
    0.5390    0.8750    2.2520 O   0  0  0  0  0
    2.3390   -0.4040    2.3430 O   0  0  0  0  0
    0.8790   -0.4770    0.3530 C   0  0  0  0  0
   -0.4070    0.1950   -0.1280 C   0  0  0  0  0
   -0.7730   -0.3370   -1.5150 C   0  0  0  0  0
    0.2810    0.0780   -2.5070 C   0  0  0  0  0
    1.1730    0.8190   -2.1670 O   0  0  0  0  0
    0.2310   -0.3750   -3.7700 O   0  0  0  0  0
   -1.5240   -0.1070    0.8360 C   0  0  0  0  0
   -1.5160   -1.1390    1.4650 O   0  0  0  0  0
   -2.5270    0.7690    0.9980 O   0  0  0  0  0
    2.5700   -0.0670    3.2190 H   0  0  0  0  0
    1.6870   -0.2580   -0.3450 H   0  0  0  0  0
    0.7270   -1.5550    0.4060 H   0  0  0  0  0
   -0.2550    1.2730   -0.1820 H   0  0  0  0  0
   -0.8320   -1.4250   -1.4820 H   0  0  0  0  0
   -1.7370    0.0690   -1.8180 H   0  0  0  0  0
    0.9080   -0.1080   -4.4070 H   0  0  0  0  0
   -3.2440    0.5750    1.6170 H   0  0  0  0  0
  1  2  2  0  0  0
  1  3  1  0  0  0
  1  4  1  0  0  0
  3 13  1  0  0  0
  4  5  1  0  0  0
  4 14  1  0  0  0
  4 15  1  0  0  0
  5  6  1  0  0  0
  5 10  1  0  0  0
  5 16  1  0  0  0
  6  7  1  0  0  0
  6 17  1  0  0  0
  6 18  1  0  0  0
  7  8  2  0  0  0
  7  9  1  0  0  0
  9 19  1  0  0  0
 10 11  2  0  0  0
 10 12  1  0  0  0
 12 20  1  0  0  0
M  END
$$$$
