TRD
  CCTOOLS-0919241035

 41 40  0  0  0  0  0  0  0  0999 V2000
   -0.4030    0.0000    7.4950 C   0  0  0  0  0
    0.4800    0.0000    6.2460 C   0  0  0  0  0
   -0.4030    0.0000    4.9970 C   0  0  0  0  0
    0.4800    0.0000    3.7470 C   0  0  0  0  0
   -0.4030    0.0000    2.4980 C   0  0  0  0  0
    0.4800    0.0000    1.2490 C   0  0  0  0  0
   -0.4030    0.0000    0.0000 C   0  0  0  0  0
    0.4800    0.0000   -1.2490 C   0  0  0  0  0
   -0.4030    0.0000   -2.4980 C   0  0  0  0  0
    0.4800    0.0000   -3.7470 C   0  0  0  0  0
   -0.4030    0.0000   -4.9970 C   0  0  0  0  0
    0.4800    0.0000   -6.2460 C   0  0  0  0  0
   -0.4030    0.0000   -7.4950 C   0  0  0  0  0
   -1.0320   -0.8900    7.4950 H   0  0  0  0  0
    0.2260    0.0000    8.3850 H   0  0  0  0  0
   -1.0320    0.8900    7.4950 H   0  0  0  0  0
    1.1090    0.8900    6.2460 H   0  0  0  0  0
    1.1090   -0.8900    6.2460 H   0  0  0  0  0
   -1.0320   -0.8900    4.9970 H   0  0  0  0  0
   -1.0320    0.8900    4.9970 H   0  0  0  0  0
    1.1090    0.8900    3.7470 H   0  0  0  0  0
    1.1090   -0.8900    3.7470 H   0  0  0  0  0
   -1.0320   -0.8900    2.4980 H   0  0  0  0  0
   -1.0320    0.8900    2.4980 H   0  0  0  0  0
    1.1090    0.8900    1.2490 H   0  0  0  0  0
    1.1090   -0.8900    1.2490 H   0  0  0  0  0
   -1.0320   -0.8900    0.0000 H   0  0  0  0  0
   -1.0320    0.8900    0.0000 H   0  0  0  0  0
    1.1090    0.8900   -1.2490 H   0  0  0  0  0
    1.1090   -0.8900   -1.2490 H   0  0  0  0  0
   -1.0320   -0.8900   -2.4980 H   0  0  0  0  0
   -1.0320    0.8900   -2.4980 H   0  0  0  0  0
    1.1090    0.8900   -3.7470 H   0  0  0  0  0
    1.1090   -0.8900   -3.7470 H   0  0  0  0  0
   -1.0320   -0.8900   -4.9970 H   0  0  0  0  0
   -1.0320    0.8900   -4.9970 H   0  0  0  0  0
    1.1090    0.8900   -6.2460 H   0  0  0  0  0
    1.1090   -0.8900   -6.2460 H   0  0  0  0  0
    0.2260    0.0000   -8.3850 H   0  0  0  0  0
   -1.0320   -0.8900   -7.4950 H   0  0  0  0  0
   -1.0320    0.8900   -7.4950 H   0  0  0  0  0
  1  2  1  0  0  0
  1 14  1  0  0  0
  1 15  1  0  0  0
  1 16  1  0  0  0
  2  3  1  0  0  0
  2 17  1  0  0  0
  2 18  1  0  0  0
  3  4  1  0  0  0
  3 19  1  0  0  0
  3 20  1  0  0  0
  4  5  1  0  0  0
  4 21  1  0  0  0
  4 22  1  0  0  0
  5  6  1  0  0  0
  5 23  1  0  0  0
  5 24  1  0  0  0
  6  7  1  0  0  0
  6 25  1  0  0  0
  6 26  1  0  0  0
  7  8  1  0  0  0
  7 27  1  0  0  0
  7 28  1  0  0  0
  8  9  1  0  0  0
  8 29  1  0  0  0
  8 30  1  0  0  0
  9 10  1  0  0  0
  9 31  1  0  0  0
  9 32  1  0  0  0
 10 11  1  0  0  0
 10 33  1  0  0  0
 10 34  1  0  0  0
 11 12  1  0  0  0
 11 35  1  0  0  0
 11 36  1  0  0  0
 12 13  1  0  0  0
 12 37  1  0  0  0
 12 38  1  0  0  0
 13 39  1  0  0  0
 13 40  1  0  0  0
 13 41  1  0  0  0
M  END
$$$$
