TRE
  CCTOOLS-0919241035

 45 46  0  0  1  0  0  0  0  0999 V2000
   -0.8120   -0.8820    0.7630 C   0  0  0  0  0
   -1.4420   -1.9360   -0.1510 C   0  0  0  0  0
   -2.3540   -1.2410   -1.1670 C   0  0  0  0  0
   -3.4050   -0.4190   -0.4140 C   0  0  0  0  0
   -2.6990    0.5760    0.5100 C   0  0  0  0  0
   -3.7420    1.3590    1.3100 C   0  0  0  0  0
   -0.4130   -2.6470   -0.8420 O   0  0  0  0  0
   -3.0040   -2.2220   -1.9760 O   0  0  0  0  0
   -4.2170    0.2920   -1.3510 O   0  0  0  0  0
   -1.8440   -0.1340    1.4080 O   0  0  0  0  0
   -3.0900    2.3670    2.0850 O   0  0  0  0  0
    0.8120    0.8820    0.7620 C   0  0  0  0  0
    1.4420    1.9360   -0.1530 C   0  0  0  0  0
    2.3530    1.2400   -1.1680 C   0  0  0  0  0
    3.4050    0.4190   -0.4150 C   0  0  0  0  0
    2.6990   -0.5760    0.5100 C   0  0  0  0  0
    3.7430   -1.3570    1.3100 C   0  0  0  0  0
    0.0000   -0.0000   -0.0160 O   0  0  0  0  0
    0.4120    2.6470   -0.8420 O   0  0  0  0  0
    3.0030    2.2210   -1.9780 O   0  0  0  0  0
    4.2170   -0.2920   -1.3510 O   0  0  0  0  0
    1.8440    0.1350    1.4080 O   0  0  0  0  0
    3.0910   -2.3650    2.0860 O   0  0  0  0  0
   -0.1950   -1.3750    1.5150 H   0  0  0  0  0
   -2.0290   -2.6330    0.4480 H   0  0  0  0  0
   -1.7600   -0.5810   -1.7980 H   0  0  0  0  0
   -4.0320   -1.0860    0.1780 H   0  0  0  0  0
   -2.1050    1.2680   -0.0880 H   0  0  0  0  0
   -4.4490    1.8280    0.6250 H   0  0  0  0  0
   -4.2760    0.6790    1.9730 H   0  0  0  0  0
    0.2030   -3.1120   -0.2590 H   0  0  0  0  0
   -2.3970   -2.7840   -2.4770 H   0  0  0  0  0
   -4.6910   -0.2780   -1.9720 H   0  0  0  0  0
   -3.6920    2.9030    2.6190 H   0  0  0  0  0
    0.1950    1.3750    1.5140 H   0  0  0  0  0
    2.0280    2.6330    0.4460 H   0  0  0  0  0
    1.7590    0.5790   -1.7990 H   0  0  0  0  0
    4.0310    1.0860    0.1780 H   0  0  0  0  0
    2.1050   -1.2680   -0.0870 H   0  0  0  0  0
    4.4490   -1.8270    0.6250 H   0  0  0  0  0
    4.2770   -0.6770    1.9730 H   0  0  0  0  0
   -0.2060    3.1080   -0.2590 H   0  0  0  0  0
    2.3950    2.7780   -2.4840 H   0  0  0  0  0
    4.6910    0.2770   -1.9730 H   0  0  0  0  0
    3.6940   -2.9010    2.6200 H   0  0  0  0  0
  1 10  1  0  0  0
  1 24  1  0  0  0
  2  3  1  0  0  0
  2  1  1  0  0  0
  2 25  1  0  0  0
  3  4  1  0  0  0
  3 26  1  0  0  0
  4  9  1  0  0  0
  4  5  1  0  0  0
  4 27  1  0  0  0
  5  6  1  0  0  0
  5 28  1  0  0  0
  6 11  1  0  0  0
  6 29  1  0  0  0
  6 30  1  0  0  0
  7  2  1  0  0  0
  7 31  1  0  0  0
  8  3  1  0  0  0
  8 32  1  0  0  0
  9 33  1  0  0  0
 10  5  1  0  0  0
 11 34  1  0  0  0
 12 35  1  0  0  0
 13 12  1  0  0  0
 13 36  1  0  0  0
 14 15  1  0  0  0
 14 13  1  0  0  0
 14 37  1  0  0  0
 15 16  1  0  0  0
 15 38  1  0  0  0
 16 17  1  0  0  0
 16 22  1  0  0  0
 16 39  1  0  0  0
 17 23  1  0  0  0
 17 40  1  0  0  0
 17 41  1  0  0  0
 18  1  1  0  0  0
 18 12  1  0  0  0
 19 13  1  0  0  0
 19 42  1  0  0  0
 20 14  1  0  0  0
 20 43  1  0  0  0
 21 15  1  0  0  0
 21 44  1  0  0  0
 22 12  1  0  0  0
 23 45  1  0  0  0
M  END
$$$$
