TRT
  CCTOOLS-0919241035

 61 61  0  0  0  0  0  0  0  0999 V2000
    3.8710   -0.4090   -7.2280 C   0  0  0  0  0
    2.4440   -0.3480   -7.2050 O   0  0  0  0  0
    2.0930    0.9690   -6.7780 C   0  0  0  0  0
    0.5700    1.1020   -6.7320 C   0  0  0  0  0
    0.0360    0.1460   -5.8130 O   0  0  0  0  0
   -1.3820    0.3200   -5.8140 C   0  0  0  0  0
   -2.0180   -0.6780   -4.8450 C   0  0  0  0  0
   -1.5120   -0.4520   -3.5280 O   0  0  0  0  0
   -2.1410   -1.4100   -2.6750 C   0  0  0  0  0
   -1.6400   -1.2230   -1.2410 C   0  0  0  0  0
   -1.9600    0.0950   -0.7940 O   0  0  0  0  0
   -1.4930    0.2030    0.4770 C   0  0  0  0  0
   -1.6590    1.3870    1.1810 C   0  0  0  0  0
   -1.1840    1.4930    2.4730 C   0  0  0  0  0
   -0.8540   -0.8720    1.0760 C   0  0  0  0  0
   -0.3750   -0.7590    2.3670 C   0  0  0  0  0
   -0.5430    0.4210    3.0660 C   0  0  0  0  0
   -0.0250    0.5400    4.4760 C   0  0  0  0  0
    1.0010    1.6720    4.5490 C   0  0  0  0  0
   -1.1880    0.8450    5.4220 C   0  0  0  0  0
    0.6360   -0.7750    4.8890 C   0  0  0  0  0
    1.4190   -0.5670    6.1870 C   0  0  0  0  0
    0.5770    0.2570    7.1640 C   0  0  0  0  0
    1.7400   -1.9250    6.8130 C   0  0  0  0  0
    2.7220    0.1750    5.8840 C   0  0  0  0  0
    4.1870   -1.4020   -7.5490 H   0  0  0  0  0
    4.2550    0.3360   -7.9230 H   0  0  0  0  0
    4.2590   -0.2100   -6.2290 H   0  0  0  0  0
    2.5040    1.1510   -5.7850 H   0  0  0  0  0
    2.5000    1.6980   -7.4790 H   0  0  0  0  0
    0.3020    2.1070   -6.4070 H   0  0  0  0  0
    0.1590    0.9200   -7.7250 H   0  0  0  0  0
   -1.6240    1.3350   -5.5010 H   0  0  0  0  0
   -1.7680    0.1480   -6.8190 H   0  0  0  0  0
   -3.1000   -0.5460   -4.8470 H   0  0  0  0  0
   -1.7760   -1.6930   -5.1590 H   0  0  0  0  0
   -3.2210   -1.2690   -2.7030 H   0  0  0  0  0
   -1.8970   -2.4160   -3.0160 H   0  0  0  0  0
   -2.1200   -1.9530   -0.5900 H   0  0  0  0  0
   -0.5600   -1.3640   -1.2120 H   0  0  0  0  0
   -2.1600    2.2250    0.7180 H   0  0  0  0  0
   -1.3130    2.4150    3.0210 H   0  0  0  0  0
   -0.7230   -1.7950    0.5300 H   0  0  0  0  0
    0.1260   -1.5940    2.8310 H   0  0  0  0  0
    1.9340    1.3470    4.0890 H   0  0  0  0  0
    0.6190    2.5440    4.0170 H   0  0  0  0  0
    1.1810    1.9330    5.5920 H   0  0  0  0  0
   -1.4650   -0.0600    5.9620 H   0  0  0  0  0
   -0.8860    1.6140    6.1340 H   0  0  0  0  0
   -2.0420    1.2000    4.8460 H   0  0  0  0  0
   -0.1300   -1.5340    5.0450 H   0  0  0  0  0
    1.3170   -1.1020    4.1030 H   0  0  0  0  0
    1.0070    0.1860    8.1630 H   0  0  0  0  0
    0.5680    1.2990    6.8450 H   0  0  0  0  0
   -0.4420   -0.1270    7.1790 H   0  0  0  0  0
    0.8180   -2.4890    6.9510 H   0  0  0  0  0
    2.4090   -2.4790    6.1540 H   0  0  0  0  0
    2.2230   -1.7760    7.7780 H   0  0  0  0  0
    2.5240    1.2450    5.8220 H   0  0  0  0  0
    3.4420   -0.0140    6.6790 H   0  0  0  0  0
    3.1270   -0.1740    4.9340 H   0  0  0  0  0
  1  2  1  0  0  0
  1 26  1  0  0  0
  1 27  1  0  0  0
  1 28  1  0  0  0
  2  3  1  0  0  0
  3  4  1  0  0  0
  3 29  1  0  0  0
  3 30  1  0  0  0
  4  5  1  0  0  0
  4 31  1  0  0  0
  4 32  1  0  0  0
  5  6  1  0  0  0
  6  7  1  0  0  0
  6 33  1  0  0  0
  6 34  1  0  0  0
  7  8  1  0  0  0
  7 35  1  0  0  0
  7 36  1  0  0  0
  8  9  1  0  0  0
  9 10  1  0  0  0
  9 37  1  0  0  0
  9 38  1  0  0  0
 10 11  1  0  0  0
 10 39  1  0  0  0
 10 40  1  0  0  0
 11 12  1  0  0  0
 12 13  2  0  0  0
 12 15  1  0  0  0
 13 14  1  0  0  0
 13 41  1  0  0  0
 14 17  2  0  0  0
 14 42  1  0  0  0
 15 16  2  0  0  0
 15 43  1  0  0  0
 16 17  1  0  0  0
 16 44  1  0  0  0
 17 18  1  0  0  0
 18 19  1  0  0  0
 18 20  1  0  0  0
 18 21  1  0  0  0
 19 45  1  0  0  0
 19 46  1  0  0  0
 19 47  1  0  0  0
 20 48  1  0  0  0
 20 49  1  0  0  0
 20 50  1  0  0  0
 21 22  1  0  0  0
 21 51  1  0  0  0
 21 52  1  0  0  0
 22 23  1  0  0  0
 22 24  1  0  0  0
 22 25  1  0  0  0
 23 53  1  0  0  0
 23 54  1  0  0  0
 23 55  1  0  0  0
 24 56  1  0  0  0
 24 57  1  0  0  0
 24 58  1  0  0  0
 25 59  1  0  0  0
 25 60  1  0  0  0
 25 61  1  0  0  0
M  END
$$$$
