TSY
  CCTOOLS-1004241125

 16 15  0  0  1  0  0  0  0  0999 V2000
   -3.1910   -0.5130    0.8560 S   0  0  0  0  0
   -1.8980   -0.2880   -0.7200 S   0  0  0  0  0
   -0.8440    1.3950   -0.2140 S   0  0  0  0  0
    0.6370    0.7230    0.5890 C   0  0  0  0  0
    1.5940    0.1830   -0.4750 C   0  0  0  0  0
    0.9770   -0.9670   -1.1500 N   0  0  0  0  0
    2.8810   -0.2510    0.1790 C   0  0  0  0  0
    3.0760   -1.4200    0.4130 O   0  0  0  0  0
   -3.8830   -1.6180    0.5240 H   0  0  0  0  0
    1.1320    1.5110    1.1560 H   0  0  0  0  0
    0.3500   -0.0840    1.2630 H   0  0  0  0  0
    1.8030    0.9640   -1.2060 H   0  0  0  0  0
    0.6770   -1.6600   -0.4820 H   0  0  0  0  0
    0.2100   -0.6730   -1.7360 H   0  0  0  0  0
    3.8100    0.6620    0.5030 O   0  0  0  0  0
    4.6190    0.3370    0.9210 H   0  0  0  0  0
  1  9  1  0  0  0
  2  1  1  0  0  0
  3  2  1  0  0  0
  4  5  1  0  0  0
  4  3  1  0  0  0
  4 10  1  0  0  0
  4 11  1  0  0  0
  5 12  1  0  0  0
  6  5  1  0  0  0
  6 13  1  0  0  0
  6 14  1  0  0  0
  7  5  1  0  0  0
  7 15  1  0  0  0
  8  7  2  0  0  0
 15 16  1  0  0  0
M  END
$$$$
