TTB
  CCTOOLS-0919241035

 54 56  0  0  0  0  0  0  0  0999 V2000
   -0.5750   -1.6600    1.1380 C   0  0  0  0  0
    0.2880   -0.5500    0.5960 C   0  0  0  0  0
    0.9080    0.2920    1.4400 C   0  0  0  0  0
    0.6030    0.2480    2.8790 C   0  0  0  0  0
   -0.7090    0.0310    3.3100 C   0  0  0  0  0
   -0.9910   -0.0140    4.6460 C   0  0  0  0  0
    0.0310    0.1670    5.5820 C   0  0  0  0  0
   -0.2740    0.1240    7.0250 C   0  0  0  0  0
   -1.5380   -0.0900    7.4400 O   0  0  0  0  0
    0.6130    0.2820    7.8390 O   0  0  0  0  0
    1.3430    0.3900    5.1520 C   0  0  0  0  0
    1.6260    0.4300    3.8170 C   0  0  0  0  0
    0.4510   -0.3870   -0.8580 C   0  0  0  0  0
    1.7200   -0.4700   -1.4390 C   0  0  0  0  0
    1.8570   -0.3140   -2.7990 C   0  0  0  0  0
    0.7480   -0.0740   -3.6030 C   0  0  0  0  0
   -0.5070    0.0010   -3.0380 C   0  0  0  0  0
   -0.6580   -0.1570   -1.6700 C   0  0  0  0  0
   -1.7500    0.2410   -3.8550 C   0  0  0  0  0
   -2.4940   -1.0820   -4.0420 C   0  0  0  0  0
   -2.6550    1.2290   -3.1170 C   0  0  0  0  0
   -1.3900    0.8140   -5.2240 C   0  0  0  0  0
   -0.3200   -0.0810   -5.8570 C   0  0  0  0  0
    0.9820    0.1000   -5.0810 C   0  0  0  0  0
    1.5320    1.5040   -5.3420 C   0  0  0  0  0
    2.0020   -0.9350   -5.5570 C   0  0  0  0  0
   -0.4970   -1.6820    2.2250 H   0  0  0  0  0
   -1.6120   -1.4860    0.8520 H   0  0  0  0  0
   -0.2390   -2.6130    0.7300 H   0  0  0  0  0
    1.6310    1.0000    1.0620 H   0  0  0  0  0
   -1.4990   -0.1090    2.5870 H   0  0  0  0  0
   -2.0030   -0.1870    4.9780 H   0  0  0  0  0
   -1.7380   -0.1180    8.3850 H   0  0  0  0  0
    2.1320    0.5300    5.8760 H   0  0  0  0  0
    2.6390    0.6020    3.4850 H   0  0  0  0  0
    2.5880   -0.6540   -0.8230 H   0  0  0  0  0
    2.8370   -0.3770   -3.2470 H   0  0  0  0  0
   -1.6420   -0.0930   -1.2280 H   0  0  0  0  0
   -2.7700   -1.4840   -3.0670 H   0  0  0  0  0
   -3.3940   -0.9120   -4.6330 H   0  0  0  0  0
   -1.8490   -1.7920   -4.5590 H   0  0  0  0  0
   -2.9300    0.8160   -2.1470 H   0  0  0  0  0
   -2.1250    2.1710   -2.9740 H   0  0  0  0  0
   -3.5560    1.4060   -3.7050 H   0  0  0  0  0
   -1.0010    1.8260   -5.1080 H   0  0  0  0  0
   -2.2760    0.8320   -5.8590 H   0  0  0  0  0
   -0.1700    0.2050   -6.8980 H   0  0  0  0  0
   -0.6360   -1.1230   -5.8050 H   0  0  0  0  0
    2.4620    1.6380   -4.7890 H   0  0  0  0  0
    1.7210    1.6280   -6.4080 H   0  0  0  0  0
    0.8040    2.2460   -5.0130 H   0  0  0  0  0
    2.9330   -0.8080   -5.0050 H   0  0  0  0  0
    1.6100   -1.9370   -5.3830 H   0  0  0  0  0
    2.1890   -0.7980   -6.6220 H   0  0  0  0  0
  1  2  1  0  0  0
  1 27  1  0  0  0
  1 28  1  0  0  0
  1 29  1  0  0  0
  2  3  2  0  0  0
  2 13  1  0  0  0
  3  4  1  0  0  0
  3 30  1  0  0  0
  4  5  2  0  0  0
  4 12  1  0  0  0
  5  6  1  0  0  0
  5 31  1  0  0  0
  6  7  2  0  0  0
  6 32  1  0  0  0
  7  8  1  0  0  0
  7 11  1  0  0  0
  8  9  1  0  0  0
  8 10  2  0  0  0
  9 33  1  0  0  0
 11 12  2  0  0  0
 11 34  1  0  0  0
 12 35  1  0  0  0
 13 14  2  0  0  0
 13 18  1  0  0  0
 14 15  1  0  0  0
 14 36  1  0  0  0
 15 16  2  0  0  0
 15 37  1  0  0  0
 16 17  1  0  0  0
 16 24  1  0  0  0
 17 18  2  0  0  0
 17 19  1  0  0  0
 18 38  1  0  0  0
 19 20  1  0  0  0
 19 21  1  0  0  0
 19 22  1  0  0  0
 20 39  1  0  0  0
 20 40  1  0  0  0
 20 41  1  0  0  0
 21 42  1  0  0  0
 21 43  1  0  0  0
 21 44  1  0  0  0
 22 23  1  0  0  0
 22 45  1  0  0  0
 22 46  1  0  0  0
 23 24  1  0  0  0
 23 47  1  0  0  0
 23 48  1  0  0  0
 24 25  1  0  0  0
 24 26  1  0  0  0
 25 49  1  0  0  0
 25 50  1  0  0  0
 25 51  1  0  0  0
 26 52  1  0  0  0
 26 53  1  0  0  0
 26 54  1  0  0  0
M  END
$$$$
