TUL
  CCTOOLS-0919241036

 12 12  0  0  0  0  0  0  0  0999 V2000
    2.3610   -1.3880    0.0020 O   0  0  0  0  0
    1.4900   -0.5370    0.0010 C   0  0  0  0  0
    1.8320    0.8370    0.0000 C   0  0  0  0  0
    0.8460    1.7600   -0.0000 C   0  0  0  0  0
   -0.4600    1.3550   -0.0000 N   0  0  0  0  0
   -0.7730    0.0470    0.0010 C   0  0  0  0  0
   -2.4180   -0.4280    0.0010 S   0  0  0  0  0
    0.1890   -0.8940   -0.0050 N   0  0  0  0  0
    2.8680    1.1420    0.0010 H   0  0  0  0  0
    1.0890    2.8120   -0.0010 H   0  0  0  0  0
   -0.0540   -1.8340   -0.0040 H   0  0  0  0  0
   -1.1680    2.0180   -0.0010 H   0  0  0  0  0
  1  2  2  0  0  0
  2  3  1  0  0  0
  3  4  2  0  0  0
  3  9  1  0  0  0
  4 10  1  0  0  0
  5  4  1  0  0  0
  5 12  1  0  0  0
  6  5  1  0  0  0
  7  6  2  0  0  0
  8  6  1  0  0  0
  8  2  1  0  0  0
  8 11  1  0  0  0
M  END
$$$$
