TUX
  CCTOOLS-0919241036

 71 71  0  0  1  0  0  0  0  0999 V2000
    0.4510    0.1020   -4.1250 C   0  0  0  0  0
    1.8580   -0.3680   -4.5120 C   0  0  0  0  0
    2.2270    0.2280   -5.8720 C   0  0  0  0  0
   -0.5110   -0.2290   -5.2700 C   0  0  0  0  0
    0.0380    0.3600   -6.5710 C   0  0  0  0  0
    1.3070   -0.2190   -6.8660 O   0  0  0  0  0
    0.0240   -0.5790   -2.9160 O   0  0  0  0  0
    0.8700    1.0130   -1.6390 O   0  0  0  0  0
    0.2830   -0.0390   -1.7150 C   0  0  0  0  0
   -0.1600   -0.7470   -0.4600 C   0  0  0  0  0
    0.2550    0.0730    0.7610 C   0  0  0  0  0
   -0.1940   -0.6440    2.0350 C   0  0  0  0  0
    0.2200    0.1760    3.2570 C   0  0  0  0  0
   -0.2290   -0.5410    4.5310 C   0  0  0  0  0
    0.1860    0.2790    5.7540 C   0  0  0  0  0
   -0.2630   -0.4390    7.0270 C   0  0  0  0  0
    0.1510    0.3820    8.2500 C   0  0  0  0  0
   -0.2980   -0.3360    9.5230 C   0  0  0  0  0
    0.1170    0.4840   10.7460 C   0  0  0  0  0
   -0.3320   -0.2330   12.0200 C   0  0  0  0  0
    0.0820    0.5870   13.2420 C   0  0  0  0  0
   -0.3670   -0.1300   14.5160 C   0  0  0  0  0
   -1.8860    0.3730   -4.9740 C   0  0  0  0  0
   -2.8320    0.0460   -6.1000 C   0  0  0  0  0
   -2.4450   -0.6040   -7.0470 O   0  0  0  0  0
   -4.1080    0.4780   -6.0560 N   0  0  0  0  0
   -4.9970    0.1700   -7.1140 O   0  0  0  0  0
    2.8010    0.0630   -3.5280 O   0  0  0  0  0
    3.6420   -0.2120   -6.2530 C   0  0  0  0  0
    3.9930    0.3520   -7.5170 O   0  0  0  0  0
    0.4600    1.1780   -3.9550 H   0  0  0  0  0
    1.8700   -1.4560   -4.5760 H   0  0  0  0  0
    2.1910    1.3160   -5.8090 H   0  0  0  0  0
   -0.6010   -1.3110   -5.3700 H   0  0  0  0  0
   -0.6540    0.1480   -7.3860 H   0  0  0  0  0
    0.1480    1.4390   -6.4620 H   0  0  0  0  0
    0.3070   -1.7300   -0.4130 H   0  0  0  0  0
   -1.2440   -0.8600   -0.4710 H   0  0  0  0  0
   -0.2120    1.0570    0.7140 H   0  0  0  0  0
    1.3390    0.1860    0.7720 H   0  0  0  0  0
    0.2730   -1.6280    2.0820 H   0  0  0  0  0
   -1.2780   -0.7570    2.0250 H   0  0  0  0  0
   -0.2460    1.1600    3.2100 H   0  0  0  0  0
    1.3040    0.2890    3.2680 H   0  0  0  0  0
    0.2380   -1.5250    4.5780 H   0  0  0  0  0
   -1.3130   -0.6550    4.5210 H   0  0  0  0  0
   -0.2810    1.2620    5.7070 H   0  0  0  0  0
    1.2700    0.3920    5.7640 H   0  0  0  0  0
    0.2040   -1.4220    7.0740 H   0  0  0  0  0
   -1.3470   -0.5520    7.0170 H   0  0  0  0  0
   -0.3150    1.3650    8.2030 H   0  0  0  0  0
    1.2350    0.4950    8.2600 H   0  0  0  0  0
    0.1690   -1.3190    9.5700 H   0  0  0  0  0
   -1.3820   -0.4490    9.5130 H   0  0  0  0  0
   -0.3500    1.4680   10.6990 H   0  0  0  0  0
    1.2010    0.5980   10.7560 H   0  0  0  0  0
    0.1350   -1.2160   12.0660 H   0  0  0  0  0
   -1.4160   -0.3460   12.0090 H   0  0  0  0  0
   -0.3840    1.5710   13.1950 H   0  0  0  0  0
    1.1660    0.7000   13.2520 H   0  0  0  0  0
   -0.0710    0.4540   15.3860 H   0  0  0  0  0
   -1.4510   -0.2430   14.5050 H   0  0  0  0  0
    0.1000   -1.1140   14.5630 H   0  0  0  0  0
   -1.7950    1.4550   -4.8780 H   0  0  0  0  0
   -2.2720   -0.0420   -4.0430 H   0  0  0  0  0
   -4.4170    0.9980   -5.2980 H   0  0  0  0  0
   -5.8490    0.5680   -6.8880 H   0  0  0  0  0
    3.6690   -0.2510   -3.8170 H   0  0  0  0  0
    3.6780   -1.3000   -6.3180 H   0  0  0  0  0
    4.3460    0.1290   -5.4940 H   0  0  0  0  0
    4.8890    0.0500   -7.7190 H   0  0  0  0  0
  1  2  1  0  0  0
  1  4  1  0  0  0
  1  7  1  0  0  0
  1 31  1  0  0  0
  2  3  1  0  0  0
  2 28  1  0  0  0
  2 32  1  0  0  0
  3  6  1  0  0  0
  3 29  1  0  0  0
  3 33  1  0  0  0
  4  5  1  0  0  0
  4 23  1  0  0  0
  4 34  1  0  0  0
  5  6  1  0  0  0
  5 35  1  0  0  0
  5 36  1  0  0  0
  7  9  1  0  0  0
  8  9  2  0  0  0
  9 10  1  0  0  0
 10 11  1  0  0  0
 10 37  1  0  0  0
 10 38  1  0  0  0
 11 12  1  0  0  0
 11 39  1  0  0  0
 11 40  1  0  0  0
 12 13  1  0  0  0
 12 41  1  0  0  0
 12 42  1  0  0  0
 13 14  1  0  0  0
 13 43  1  0  0  0
 13 44  1  0  0  0
 14 15  1  0  0  0
 14 45  1  0  0  0
 14 46  1  0  0  0
 15 16  1  0  0  0
 15 47  1  0  0  0
 15 48  1  0  0  0
 16 17  1  0  0  0
 16 49  1  0  0  0
 16 50  1  0  0  0
 17 18  1  0  0  0
 17 51  1  0  0  0
 17 52  1  0  0  0
 18 19  1  0  0  0
 18 53  1  0  0  0
 18 54  1  0  0  0
 19 20  1  0  0  0
 19 55  1  0  0  0
 19 56  1  0  0  0
 20 21  1  0  0  0
 20 57  1  0  0  0
 20 58  1  0  0  0
 21 22  1  0  0  0
 21 59  1  0  0  0
 21 60  1  0  0  0
 22 61  1  0  0  0
 22 62  1  0  0  0
 22 63  1  0  0  0
 23 24  1  0  0  0
 23 64  1  0  0  0
 23 65  1  0  0  0
 24 25  2  0  0  0
 24 26  1  0  0  0
 26 27  1  0  0  0
 26 66  1  0  0  0
 27 67  1  0  0  0
 28 68  1  0  0  0
 29 30  1  0  0  0
 29 69  1  0  0  0
 29 70  1  0  0  0
 30 71  1  0  0  0
M  END
$$$$
