TWT
  CCTOOLS-0919241036

 68 67  0  0  0  0  0  0  0  0999 V2000
   -0.3760   -0.0040   13.1190 C   0  0  0  0  0
    0.5000    0.0050   11.8650 C   0  0  0  0  0
   -0.3890   -0.0040   10.6200 C   0  0  0  0  0
    0.4880    0.0050    9.3670 C   0  0  0  0  0
   -0.4010   -0.0040    8.1220 C   0  0  0  0  0
    0.4750    0.0050    6.8680 C   0  0  0  0  0
   -0.4130   -0.0040    5.6230 C   0  0  0  0  0
    0.4630    0.0050    4.3700 C   0  0  0  0  0
   -0.4260   -0.0040    3.1250 C   0  0  0  0  0
    0.4500    0.0040    1.8710 C   0  0  0  0  0
   -0.4380   -0.0040    0.6260 C   0  0  0  0  0
    0.4380    0.0040   -0.6260 C   0  0  0  0  0
   -0.4500   -0.0040   -1.8710 C   0  0  0  0  0
    0.4260    0.0040   -3.1250 C   0  0  0  0  0
   -0.4630   -0.0050   -4.3700 C   0  0  0  0  0
    0.4130    0.0040   -5.6230 C   0  0  0  0  0
   -0.4750   -0.0050   -6.8680 C   0  0  0  0  0
    0.4010    0.0040   -8.1220 C   0  0  0  0  0
   -0.4880   -0.0050   -9.3670 C   0  0  0  0  0
    0.3890    0.0040  -10.6200 C   0  0  0  0  0
   -0.5000   -0.0050  -11.8650 C   0  0  0  0  0
    0.3760    0.0040  -13.1190 C   0  0  0  0  0
    0.2560    0.0020   14.0050 H   0  0  0  0  0
   -1.0150    0.8780   13.1220 H   0  0  0  0  0
   -0.9960   -0.9000   13.1220 H   0  0  0  0  0
    1.1190    0.9020   11.8620 H   0  0  0  0  0
    1.1390   -0.8770   11.8620 H   0  0  0  0  0
   -1.0080   -0.9010   10.6230 H   0  0  0  0  0
   -1.0280    0.8780   10.6230 H   0  0  0  0  0
    1.1070    0.9020    9.3630 H   0  0  0  0  0
    1.1260   -0.8770    9.3630 H   0  0  0  0  0
   -1.0210   -0.9010    8.1250 H   0  0  0  0  0
   -1.0400    0.8780    8.1250 H   0  0  0  0  0
    1.0950    0.9020    6.8650 H   0  0  0  0  0
    1.1140   -0.8770    6.8650 H   0  0  0  0  0
   -1.0330   -0.9010    5.6260 H   0  0  0  0  0
   -1.0520    0.8780    5.6260 H   0  0  0  0  0
    1.0820    0.9010    4.3670 H   0  0  0  0  0
    1.1020   -0.8780    4.3670 H   0  0  0  0  0
   -1.0450   -0.9010    3.1280 H   0  0  0  0  0
   -1.0650    0.8780    3.1280 H   0  0  0  0  0
    1.0700    0.9010    1.8680 H   0  0  0  0  0
    1.0890   -0.8780    1.8680 H   0  0  0  0  0
   -1.0580   -0.9010    0.6290 H   0  0  0  0  0
   -1.0770    0.8780    0.6290 H   0  0  0  0  0
    1.0580    0.9010   -0.6290 H   0  0  0  0  0
    1.0770   -0.8780   -0.6290 H   0  0  0  0  0
   -1.0700   -0.9010   -1.8680 H   0  0  0  0  0
   -1.0890    0.8780   -1.8680 H   0  0  0  0  0
    1.0450    0.9010   -3.1280 H   0  0  0  0  0
    1.0650   -0.8780   -3.1280 H   0  0  0  0  0
   -1.0820   -0.9010   -4.3670 H   0  0  0  0  0
   -1.1020    0.8780   -4.3670 H   0  0  0  0  0
    1.0330    0.9010   -5.6260 H   0  0  0  0  0
    1.0520   -0.8780   -5.6260 H   0  0  0  0  0
   -1.0950   -0.9020   -6.8650 H   0  0  0  0  0
   -1.1140    0.8770   -6.8650 H   0  0  0  0  0
    1.0210    0.9010   -8.1250 H   0  0  0  0  0
    1.0400   -0.8780   -8.1250 H   0  0  0  0  0
   -1.1070   -0.9020   -9.3630 H   0  0  0  0  0
   -1.1260    0.8770   -9.3630 H   0  0  0  0  0
    1.0080    0.9010  -10.6230 H   0  0  0  0  0
    1.0280   -0.8780  -10.6230 H   0  0  0  0  0
   -1.1190   -0.9020  -11.8620 H   0  0  0  0  0
   -1.1390    0.8770  -11.8620 H   0  0  0  0  0
   -0.2560   -0.0020  -14.0050 H   0  0  0  0  0
    0.9960    0.9000  -13.1220 H   0  0  0  0  0
    1.0150   -0.8780  -13.1220 H   0  0  0  0  0
  1  2  1  0  0  0
  1 23  1  0  0  0
  1 24  1  0  0  0
  1 25  1  0  0  0
  2  3  1  0  0  0
  2 26  1  0  0  0
  2 27  1  0  0  0
  3  4  1  0  0  0
  3 28  1  0  0  0
  3 29  1  0  0  0
  4  5  1  0  0  0
  4 30  1  0  0  0
  4 31  1  0  0  0
  5  6  1  0  0  0
  5 32  1  0  0  0
  5 33  1  0  0  0
  6  7  1  0  0  0
  6 34  1  0  0  0
  6 35  1  0  0  0
  7  8  1  0  0  0
  7 36  1  0  0  0
  7 37  1  0  0  0
  8  9  1  0  0  0
  8 38  1  0  0  0
  8 39  1  0  0  0
  9 10  1  0  0  0
  9 40  1  0  0  0
  9 41  1  0  0  0
 10 11  1  0  0  0
 10 42  1  0  0  0
 10 43  1  0  0  0
 11 12  1  0  0  0
 11 44  1  0  0  0
 11 45  1  0  0  0
 12 13  1  0  0  0
 12 46  1  0  0  0
 12 47  1  0  0  0
 13 14  1  0  0  0
 13 48  1  0  0  0
 13 49  1  0  0  0
 14 15  1  0  0  0
 14 50  1  0  0  0
 14 51  1  0  0  0
 15 16  1  0  0  0
 15 52  1  0  0  0
 15 53  1  0  0  0
 16 17  1  0  0  0
 16 54  1  0  0  0
 16 55  1  0  0  0
 17 18  1  0  0  0
 17 56  1  0  0  0
 17 57  1  0  0  0
 18 19  1  0  0  0
 18 58  1  0  0  0
 18 59  1  0  0  0
 19 20  1  0  0  0
 19 60  1  0  0  0
 19 61  1  0  0  0
 20 21  1  0  0  0
 20 62  1  0  0  0
 20 63  1  0  0  0
 21 22  1  0  0  0
 21 64  1  0  0  0
 21 65  1  0  0  0
 22 66  1  0  0  0
 22 67  1  0  0  0
 22 68  1  0  0  0
M  END
$$$$
