TYD
  CCTOOLS-0919241036

 41 42  0  0  1  0  0  0  0  0999 V2000
   -0.1430   -0.0020   -2.9000 P   0  0  0  0  0
    0.6330    1.2100   -2.5580 O   0  0  0  0  0
   -1.4730    0.4210   -3.7030 O   0  0  0  0  0
    0.7520   -0.9720   -3.8210 O   0  0  0  0  0
    1.1260   -0.1400   -5.1470 P   0  0  0  0  0
    1.8840    1.0740   -4.7710 O   0  0  0  0  0
    2.0270   -1.0550   -6.1190 O   0  0  0  0  0
   -0.2240    0.2850   -5.9120 O   0  0  0  0  0
   -0.5550   -0.7740   -1.5490 O   0  0  0  0  0
   -1.3450    0.1330   -0.7790 C   0  0  0  0  0
   -1.7720   -0.5410    0.5250 C   0  0  0  0  0
   -0.6240   -0.8090    1.3630 O   0  0  0  0  0
   -2.6310    0.4210    1.3830 C   0  0  0  0  0
   -4.0080    0.3490    1.0070 O   0  0  0  0  0
   -2.4180   -0.1370    2.8110 C   0  0  0  0  0
   -1.1130   -0.9490    2.7080 C   0  0  0  0  0
   -0.1240   -0.4250    3.6540 N   0  0  0  0  0
    0.2760    0.8540    3.5580 C   0  0  0  0  0
   -0.1860    1.5640    2.6850 O   0  0  0  0  0
    1.1820    1.3620    4.4140 N   0  0  0  0  0
    1.7010    0.5900    5.3900 C   0  0  0  0  0
    2.5220    1.0480    6.1650 O   0  0  0  0  0
    1.2920   -0.7600    5.4990 C   0  0  0  0  0
    1.8600   -1.6450    6.5780 C   0  0  0  0  0
    0.3810   -1.2430    4.6270 C   0  0  0  0  0
   -1.9490   -0.3950   -3.9060 H   0  0  0  0  0
    2.2280   -0.5200   -6.8990 H   0  0  0  0  0
   -0.6870   -0.5320   -6.1400 H   0  0  0  0  0
   -2.2300    0.4170   -1.3470 H   0  0  0  0  0
   -0.7580    1.0230   -0.5520 H   0  0  0  0  0
   -2.3170   -1.4620    0.3190 H   0  0  0  0  0
   -2.2620    1.4440    1.3070 H   0  0  0  0  0
   -4.4980    0.8980    1.6350 H   0  0  0  0  0
   -3.2490   -0.7840    3.0950 H   0  0  0  0  0
   -2.3060    0.6760    3.5270 H   0  0  0  0  0
   -1.3110   -1.9990    2.9230 H   0  0  0  0  0
    1.4600    2.2870    4.3300 H   0  0  0  0  0
    2.5730   -1.0780    7.1760 H   0  0  0  0  0
    1.0530   -2.0020    7.2180 H   0  0  0  0  0
    2.3650   -2.4970    6.1210 H   0  0  0  0  0
    0.0540   -2.2700    4.6970 H   0  0  0  0  0
  1  2  2  0  0  0
  1  3  1  0  0  0
  1  4  1  0  0  0
  1  9  1  0  0  0
  3 26  1  0  0  0
  4  5  1  0  0  0
  5  6  2  0  0  0
  5  7  1  0  0  0
  5  8  1  0  0  0
  7 27  1  0  0  0
  8 28  1  0  0  0
  9 10  1  0  0  0
 10 11  1  0  0  0
 10 29  1  0  0  0
 10 30  1  0  0  0
 11 12  1  0  0  0
 11 13  1  0  0  0
 11 31  1  0  0  0
 12 16  1  0  0  0
 13 14  1  0  0  0
 13 15  1  0  0  0
 13 32  1  0  0  0
 14 33  1  0  0  0
 15 16  1  0  0  0
 15 34  1  0  0  0
 15 35  1  0  0  0
 16 17  1  0  0  0
 16 36  1  0  0  0
 17 18  1  0  0  0
 17 25  1  0  0  0
 18 19  2  0  0  0
 18 20  1  0  0  0
 20 21  1  0  0  0
 20 37  1  0  0  0
 21 22  2  0  0  0
 21 23  1  0  0  0
 23 24  1  0  0  0
 23 25  2  0  0  0
 24 38  1  0  0  0
 24 39  1  0  0  0
 24 40  1  0  0  0
 25 41  1  0  0  0
M  END
$$$$
