TYM
  CCTOOLS-0919241036

 61 65  0  0  1  0  0  0  0  0999 V2000
    2.4070    0.2420    1.0660 P   0  0  0  0  0
    2.2470    1.8140    0.7580 O   0  0  0  0  0
    3.8390   -0.0800    1.2500 O   0  0  0  0  0
    1.8180   -0.6080   -0.1670 O   0  0  0  0  0
    2.5740   -0.2380   -1.3220 C   0  0  0  0  0
    2.0630   -1.0150   -2.5360 C   0  0  0  0  0
    0.6870   -0.6840   -2.7850 O   0  0  0  0  0
    0.4950   -0.7220   -4.2150 C   0  0  0  0  0
   -0.6780    0.0630   -4.6000 N   0  0  0  0  0
   -1.4740   -0.1490   -5.6970 C   0  0  0  0  0
   -1.4920   -1.0370   -6.6860 N   0  0  0  0  0
   -2.4190   -0.9850   -7.6180 C   0  0  0  0  0
   -3.3700   -0.0690   -7.6220 N   0  0  0  0  0
   -3.4370    0.8560   -6.6710 C   0  0  0  0  0
   -4.4370    1.8130   -6.6840 N   0  0  0  0  0
   -2.4680    0.8420   -5.6530 C   0  0  0  0  0
   -2.2270    1.6010   -4.5570 N   0  0  0  0  0
   -1.1770    1.1460   -3.9380 C   0  0  0  0  0
    1.7920   -0.0810   -4.7710 C   0  0  0  0  0
    2.0520   -0.5270   -6.1030 O   0  0  0  0  0
    2.8670   -0.6180   -3.7890 C   0  0  0  0  0
    3.5310   -1.7540   -4.3470 O   0  0  0  0  0
    2.0430    0.2710    5.9880 N   0  0  0  0  0
    1.1590    0.1200    4.8250 C   0  0  0  0  0
   -0.0400    1.0590    4.9710 C   0  0  0  0  0
   -0.7980    0.7130    6.2260 C   0  0  0  0  0
   -1.9060   -0.2370    6.3410 C   0  0  0  0  0
   -2.2880   -0.2270    7.6960 C   0  0  0  0  0
   -2.5660   -1.0720    5.4380 C   0  0  0  0  0
   -0.5900    1.2230    7.4510 C   0  0  0  0  0
   -1.4700    0.6730    8.3410 N   0  0  0  0  0
   -3.3300   -1.0460    8.1160 C   0  0  0  0  0
   -3.5880   -1.8690    5.8730 C   0  0  0  0  0
   -3.9710   -1.8590    7.2060 C   0  0  0  0  0
    1.9170    0.4650    3.5690 C   0  0  0  0  0
    2.8120    1.2760    3.6070 O   0  0  0  0  0
    1.5970   -0.1260    2.4070 O   0  0  0  0  0
    1.3010    1.9820    0.6450 H   0  0  0  0  0
    2.4630    0.8300   -1.5020 H   0  0  0  0  0
    3.6260   -0.4710   -1.1580 H   0  0  0  0  0
    2.1600   -2.0860   -2.3580 H   0  0  0  0  0
    0.3970   -1.7510   -4.5620 H   0  0  0  0  0
   -2.4020   -1.7200   -8.4100 H   0  0  0  0  0
   -5.0990    1.8130   -7.3920 H   0  0  0  0  0
   -4.4750    2.4840   -5.9840 H   0  0  0  0  0
   -0.7610    1.5630   -3.0330 H   0  0  0  0  0
    1.7360    1.0060   -4.7310 H   0  0  0  0  0
    2.8680   -0.0940   -6.3900 H   0  0  0  0  0
    3.5880    0.1630   -3.5480 H   0  0  0  0  0
    3.9640   -1.4540   -5.1580 H   0  0  0  0  0
    2.3410    1.2350    6.0020 H   0  0  0  0  0
    1.4710    0.1320    6.8070 H   0  0  0  0  0
    0.8080   -0.9100    4.7660 H   0  0  0  0  0
    0.3090    2.0890    5.0300 H   0  0  0  0  0
   -0.6960    0.9470    4.1080 H   0  0  0  0  0
   -2.2720   -1.0860    4.3990 H   0  0  0  0  0
    0.1610    1.9590    7.6960 H   0  0  0  0  0
   -1.5130    0.8850    9.2870 H   0  0  0  0  0
   -3.6360   -1.0460    9.1520 H   0  0  0  0  0
   -4.1010   -2.5110    5.1720 H   0  0  0  0  0
   -4.7810   -2.4940    7.5350 H   0  0  0  0  0
  1  2  1  0  0  0
  1  3  2  0  0  0
  1  4  1  0  0  0
  1 37  1  0  0  0
  2 38  1  0  0  0
  4  5  1  0  0  0
  5  6  1  0  0  0
  5 39  1  0  0  0
  5 40  1  0  0  0
  6  7  1  0  0  0
  6 21  1  0  0  0
  6 41  1  0  0  0
  7  8  1  0  0  0
  8  9  1  0  0  0
  8 19  1  0  0  0
  8 42  1  0  0  0
  9 10  1  0  0  0
  9 18  1  0  0  0
 10 11  2  0  0  0
 10 16  1  0  0  0
 11 12  1  0  0  0
 12 13  2  0  0  0
 12 43  1  0  0  0
 13 14  1  0  0  0
 14 15  1  0  0  0
 14 16  2  0  0  0
 15 44  1  0  0  0
 15 45  1  0  0  0
 16 17  1  0  0  0
 17 18  2  0  0  0
 18 46  1  0  0  0
 19 20  1  0  0  0
 19 21  1  0  0  0
 19 47  1  0  0  0
 20 48  1  0  0  0
 21 22  1  0  0  0
 21 49  1  0  0  0
 22 50  1  0  0  0
 23 24  1  0  0  0
 23 51  1  0  0  0
 23 52  1  0  0  0
 24 25  1  0  0  0
 24 35  1  0  0  0
 24 53  1  0  0  0
 25 26  1  0  0  0
 25 54  1  0  0  0
 25 55  1  0  0  0
 26 27  1  0  0  0
 26 30  2  0  0  0
 27 28  2  0  0  0
 27 29  1  0  0  0
 28 31  1  0  0  0
 28 32  1  0  0  0
 29 33  2  0  0  0
 29 56  1  0  0  0
 30 31  1  0  0  0
 30 57  1  0  0  0
 31 58  1  0  0  0
 32 34  2  0  0  0
 32 59  1  0  0  0
 33 34  1  0  0  0
 33 60  1  0  0  0
 34 61  1  0  0  0
 35 36  2  0  0  0
 35 37  1  0  0  0
M  END
$$$$
