TZT
  CCTOOLS-0919241036

117118  0  0  1  0  0  0  0  0999 V2000
    8.0030   -0.6230   -1.1460 C   0  0  0  0  0
    8.7380   -1.0940    0.1120 C   0  0  0  0  0
   10.2400   -0.8570   -0.0560 C   0  0  0  0  0
    8.2300   -0.3090    1.3230 C   0  0  0  0  0
    8.8890   -0.8040    2.5390 N   0  0  0  0  0
    9.0470   -2.2640    2.4940 C   0  0  0  0  0
   10.1840   -0.1400    2.7430 C   0  0  0  0  0
    6.7390   -0.4900    1.4500 C   0  0  0  0  0
    6.2890   -1.2270    2.3010 O   0  0  0  0  0
    5.9070    0.1670    0.6180 N   0  0  0  0  0
    4.4570    0.0410    0.7820 C   0  0  0  0  0
    3.9720    1.0480    1.8270 C   0  0  0  0  0
    2.4740    0.8510    2.0690 C   0  0  0  0  0
    4.7330    0.8310    3.1360 C   0  0  0  0  0
    3.7760    0.3150   -0.5340 C   0  0  0  0  0
    4.1110    1.2700   -1.2020 O   0  0  0  0  0
    2.7960   -0.5020   -0.9690 N   0  0  0  0  0
    2.4640   -1.7130   -0.2150 C   0  0  0  0  0
    2.0640   -0.1780   -2.1960 C   0  0  0  0  0
    2.3640   -1.2330   -3.2620 C   0  0  0  0  0
    3.8720   -1.2920   -3.5110 C   0  0  0  0  0
    1.6460   -0.8620   -4.5620 C   0  0  0  0  0
    1.8150   -1.9940   -5.5780 C   0  0  0  0  0
    0.5620   -0.1610   -1.9030 C   0  0  0  0  0
    0.1550   -1.4450   -1.4270 O   0  0  0  0  0
   -0.5010   -2.2490   -2.4100 C   0  0  0  0  0
    0.2610    0.8960   -0.8390 C   0  0  0  0  0
   -1.2290    0.9990   -0.6400 C   0  0  0  0  0
   -1.9770    0.2960   -1.2850 O   0  0  0  0  0
   -1.7300    1.8720    0.2560 N   0  0  0  0  0
   -0.9400    2.7830    1.1030 C   0  0  0  0  0
   -1.8500    3.0840    2.3200 C   0  0  0  0  0
   -3.2500    3.1490    1.6530 C   0  0  0  0  0
   -3.1570    2.0790    0.5450 C   0  0  0  0  0
   -3.8780    2.5650   -0.7130 C   0  0  0  0  0
   -3.4690    3.9020   -1.0100 O   0  0  0  0  0
   -3.4090    4.1950   -2.4080 C   0  0  0  0  0
   -5.3900    2.5350   -0.4790 C   0  0  0  0  0
   -5.7390    3.4280    0.7130 C   0  0  0  0  0
   -5.8250    1.1210   -0.1920 C   0  0  0  0  0
   -5.0340    0.2080   -0.3040 O   0  0  0  0  0
   -7.0940    0.8710    0.1890 N   0  0  0  0  0
   -7.5170   -0.5030    0.4680 C   0  0  0  0  0
   -8.9910   -0.5100    0.8770 C   0  0  0  0  0
   -9.4270   -1.9240    1.1640 C   0  0  0  0  0
   -9.3090   -2.4370    2.4420 C   0  0  0  0  0
   -9.7090   -3.7340    2.7050 C   0  0  0  0  0
  -10.2260   -4.5170    1.6900 C   0  0  0  0  0
  -10.3450   -4.0040    0.4120 C   0  0  0  0  0
   -9.9490   -2.7050    0.1500 C   0  0  0  0  0
    8.4300   -1.1140   -2.0200 H   0  0  0  0  0
    6.9470   -0.8780   -1.0660 H   0  0  0  0  0
    8.1110    0.4570   -1.2460 H   0  0  0  0  0
    8.5520   -2.1570    0.2640 H   0  0  0  0  0
   10.7810   -1.3850    0.7280 H   0  0  0  0  0
   10.5590   -1.2270   -1.0310 H   0  0  0  0  0
   10.4490    0.2110    0.0130 H   0  0  0  0  0
    8.4570    0.7490    1.1910 H   0  0  0  0  0
    9.7430   -2.5300    1.6990 H   0  0  0  0  0
    9.4350   -2.6160    3.4500 H   0  0  0  0  0
    8.0800   -2.7280    2.3010 H   0  0  0  0  0
   10.0210    0.9190    2.9450 H   0  0  0  0  0
   10.6960   -0.5970    3.5900 H   0  0  0  0  0
   10.7940   -0.2500    1.8470 H   0  0  0  0  0
    6.2680    0.7240   -0.0890 H   0  0  0  0  0
    4.2150   -0.9700    1.1130 H   0  0  0  0  0
    4.1520    2.0610    1.4660 H   0  0  0  0  0
    2.3010   -0.1390    2.4900 H   0  0  0  0  0
    2.1160    1.6090    2.7650 H   0  0  0  0  0
    1.9380    0.9430    1.1240 H   0  0  0  0  0
    5.8000    0.9710    2.9640 H   0  0  0  0  0
    4.3870    1.5490    3.8800 H   0  0  0  0  0
    4.5530   -0.1820    3.4970 H   0  0  0  0  0
    1.7030   -1.4800    0.5300 H   0  0  0  0  0
    2.0820   -2.4730   -0.8980 H   0  0  0  0  0
    3.3580   -2.0880    0.2830 H   0  0  0  0  0
    2.3750    0.8020   -2.5560 H   0  0  0  0  0
    2.0140   -2.2070   -2.9190 H   0  0  0  0  0
    4.0860   -2.0430   -4.2710 H   0  0  0  0  0
    4.2220   -0.3180   -3.8550 H   0  0  0  0  0
    4.3830   -1.5560   -2.5850 H   0  0  0  0  0
    0.5860   -0.7100   -4.3610 H   0  0  0  0  0
    2.0760    0.0550   -4.9650 H   0  0  0  0  0
    1.3860   -2.9110   -5.1750 H   0  0  0  0  0
    1.3040   -1.7300   -6.5040 H   0  0  0  0  0
    2.8760   -2.1460   -5.7790 H   0  0  0  0  0
    0.0170    0.0770   -2.8160 H   0  0  0  0  0
   -1.4280   -1.7640   -2.7160 H   0  0  0  0  0
    0.1500   -2.3670   -3.2760 H   0  0  0  0  0
   -0.7250   -3.2290   -1.9880 H   0  0  0  0  0
    0.7350    0.6110    0.1000 H   0  0  0  0  0
    0.6520    1.8600   -1.1640 H   0  0  0  0  0
   -0.0200    2.2970    1.4280 H   0  0  0  0  0
   -0.7130    3.7030    0.5630 H   0  0  0  0  0
   -1.8030    2.2770    3.0520 H   0  0  0  0  0
   -1.5900    4.0390    2.7760 H   0  0  0  0  0
   -4.0310    2.8980    2.3710 H   0  0  0  0  0
   -3.4250    4.1330    1.2200 H   0  0  0  0  0
   -3.6030    1.1470    0.8940 H   0  0  0  0  0
   -3.6270    1.9140   -1.5510 H   0  0  0  0  0
   -3.0080    5.1980   -2.5520 H   0  0  0  0  0
   -2.7630    3.4710   -2.9040 H   0  0  0  0  0
   -4.4110    4.1400   -2.8330 H   0  0  0  0  0
   -5.9030    2.9000   -1.3690 H   0  0  0  0  0
   -5.4430    2.9320    1.6380 H   0  0  0  0  0
   -5.2090    4.3770    0.6240 H   0  0  0  0  0
   -6.8130    3.6120    0.7270 H   0  0  0  0  0
   -7.7260    1.6010    0.2780 H   0  0  0  0  0
   -7.3850   -1.1130   -0.4260 H   0  0  0  0  0
   -6.9130   -0.9120    1.2780 H   0  0  0  0  0
   -9.1230    0.0990    1.7710 H   0  0  0  0  0
   -9.5950   -0.1010    0.0660 H   0  0  0  0  0
   -8.9050   -1.8250    3.2340 H   0  0  0  0  0
   -9.6160   -4.1360    3.7030 H   0  0  0  0  0
  -10.5380   -5.5310    1.8960 H   0  0  0  0  0
  -10.7490   -4.6160   -0.3800 H   0  0  0  0  0
  -10.0450   -2.3030   -0.8470 H   0  0  0  0  0
  1  2  1  0  0  0
  1 51  1  0  0  0
  1 52  1  0  0  0
  1 53  1  0  0  0
  2  3  1  0  0  0
  2  4  1  0  0  0
  2 54  1  0  0  0
  3 55  1  0  0  0
  3 56  1  0  0  0
  3 57  1  0  0  0
  4  5  1  0  0  0
  4  8  1  0  0  0
  4 58  1  0  0  0
  5  6  1  0  0  0
  5  7  1  0  0  0
  6 59  1  0  0  0
  6 60  1  0  0  0
  6 61  1  0  0  0
  7 62  1  0  0  0
  7 63  1  0  0  0
  7 64  1  0  0  0
  8  9  2  0  0  0
  8 10  1  0  0  0
 10 11  1  0  0  0
 10 65  1  0  0  0
 11 12  1  0  0  0
 11 15  1  0  0  0
 11 66  1  0  0  0
 12 13  1  0  0  0
 12 14  1  0  0  0
 12 67  1  0  0  0
 13 68  1  0  0  0
 13 69  1  0  0  0
 13 70  1  0  0  0
 14 71  1  0  0  0
 14 72  1  0  0  0
 14 73  1  0  0  0
 15 16  2  0  0  0
 15 17  1  0  0  0
 17 18  1  0  0  0
 17 19  1  0  0  0
 18 74  1  0  0  0
 18 75  1  0  0  0
 18 76  1  0  0  0
 19 20  1  0  0  0
 19 24  1  0  0  0
 19 77  1  0  0  0
 20 21  1  0  0  0
 20 22  1  0  0  0
 20 78  1  0  0  0
 21 79  1  0  0  0
 21 80  1  0  0  0
 21 81  1  0  0  0
 22 23  1  0  0  0
 22 82  1  0  0  0
 22 83  1  0  0  0
 23 84  1  0  0  0
 23 85  1  0  0  0
 23 86  1  0  0  0
 24 25  1  0  0  0
 24 27  1  0  0  0
 24 87  1  0  0  0
 25 26  1  0  0  0
 26 88  1  0  0  0
 26 89  1  0  0  0
 26 90  1  0  0  0
 27 28  1  0  0  0
 27 91  1  0  0  0
 27 92  1  0  0  0
 28 29  2  0  0  0
 28 30  1  0  0  0
 30 31  1  0  0  0
 30 34  1  0  0  0
 31 32  1  0  0  0
 31 93  1  0  0  0
 31 94  1  0  0  0
 32 33  1  0  0  0
 32 95  1  0  0  0
 32 96  1  0  0  0
 33 34  1  0  0  0
 33 97  1  0  0  0
 33 98  1  0  0  0
 34 35  1  0  0  0
 34 99  1  0  0  0
 35 36  1  0  0  0
 35 38  1  0  0  0
 35100  1  0  0  0
 36 37  1  0  0  0
 37101  1  0  0  0
 37102  1  0  0  0
 37103  1  0  0  0
 38 39  1  0  0  0
 38 40  1  0  0  0
 38104  1  0  0  0
 39105  1  0  0  0
 39106  1  0  0  0
 39107  1  0  0  0
 40 41  2  0  0  0
 40 42  1  0  0  0
 42 43  1  0  0  0
 42108  1  0  0  0
 43 44  1  0  0  0
 43109  1  0  0  0
 43110  1  0  0  0
 44 45  1  0  0  0
 44111  1  0  0  0
 44112  1  0  0  0
 45 46  2  0  0  0
 45 50  1  0  0  0
 46 47  1  0  0  0
 46113  1  0  0  0
 47 48  2  0  0  0
 47114  1  0  0  0
 48 49  1  0  0  0
 48115  1  0  0  0
 49 50  2  0  0  0
 49116  1  0  0  0
 50117  1  0  0  0
M  END
$$$$
