U10
  CCTOOLS-0919241036

153153  0  0  0  0  0  0  0  0999 V2000
    0.4510   -2.0120  -16.5220 C   0  0  0  0  0
    1.7100   -1.5280  -17.1270 C   0  0  0  0  0
    1.8560   -0.1050  -17.4880 C   0  0  0  0  0
    0.8320    0.7530  -17.2740 C   0  0  0  0  0
   -0.4230    0.2630  -16.6750 C   0  0  0  0  0
   -0.5610   -1.1630  -16.3100 C   0  0  0  0  0
    0.3050   -3.4640  -16.1480 C   0  0  0  0  0
    4.0120    0.2700  -17.0180 C   0  0  0  0  0
    0.0810    2.2930  -18.7130 C   0  0  0  0  0
   -1.8450   -1.6620  -15.6980 C   0  0  0  0  0
   -1.7650   -1.5450  -14.1980 C   0  0  0  0  0
   -2.7100   -0.9230  -13.5380 C   0  0  0  0  0
   -3.9520   -0.4610  -14.2550 C   0  0  0  0  0
   -2.5540   -0.6680  -12.0610 C   0  0  0  0  0
   -1.8680    0.6810  -11.8450 C   0  0  0  0  0
   -1.7120    0.9360  -10.3680 C   0  0  0  0  0
   -0.5380    1.2420   -9.8760 C   0  0  0  0  0
    0.6240    1.4940  -10.8020 C   0  0  0  0  0
   -0.3480    1.3420   -8.3840 C   0  0  0  0  0
    0.0590   -0.0230   -7.8290 C   0  0  0  0  0
    0.2480    0.0760   -6.3380 C   0  0  0  0  0
   -0.3810   -0.7500   -5.5410 C   0  0  0  0  0
   -1.3810   -1.7260   -6.1050 C   0  0  0  0  0
   -0.1050   -0.7260   -4.0590 C   0  0  0  0  0
   -1.0620    0.2540   -3.3790 C   0  0  0  0  0
   -0.7860    0.2790   -1.8970 C   0  0  0  0  0
   -0.3790    1.3840   -1.3250 C   0  0  0  0  0
   -0.0280    2.5840   -2.1670 C   0  0  0  0  0
   -0.2610    1.4570    0.1750 C   0  0  0  0  0
    1.1430    1.0220    0.5970 C   0  0  0  0  0
    1.2610    1.0950    2.0980 C   0  0  0  0  0
    1.6900    0.0570    2.7720 C   0  0  0  0  0
    2.2270   -1.1460    2.0420 C   0  0  0  0  0
    1.6470    0.0660    4.2790 C   0  0  0  0  0
    0.3070   -0.5000    4.7540 C   0  0  0  0  0
    0.2640   -0.4900    6.2600 C   0  0  0  0  0
   -0.6880    0.1570    6.8840 C   0  0  0  0  0
   -1.6360    1.0340    6.1070 C   0  0  0  0  0
   -0.8340    0.0270    8.3780 C   0  0  0  0  0
    0.0010    1.1060    9.0690 C   0  0  0  0  0
   -0.1450    0.9750   10.5630 C   0  0  0  0  0
    0.9130    0.7910   11.3110 C   0  0  0  0  0
    2.2540    0.5380   10.6710 C   0  0  0  0  0
    0.7910    0.8330   12.8130 C   0  0  0  0  0
    0.4900   -0.5700   13.3400 C   0  0  0  0  0
    0.3680   -0.5280   14.8410 C   0  0  0  0  0
   -0.7340   -0.9320   15.4200 C   0  0  0  0  0
   -1.9410   -1.2750   14.5860 C   0  0  0  0  0
   -0.7970   -1.0540   16.9210 C   0  0  0  0  0
   -1.2690    0.2710   17.5210 C   0  0  0  0  0
   -1.3320    0.1490   19.0220 C   0  0  0  0  0
   -0.7180    1.0260   19.7760 C   0  0  0  0  0
   -0.0840    2.2430   19.1530 C   0  0  0  0  0
   -0.6470    0.8190   21.2670 C   0  0  0  0  0
    0.6130    0.0220   21.6120 C   0  0  0  0  0
    0.6840   -0.1840   23.1030 C   0  0  0  0  0
    0.7950   -1.3940   23.5910 C   0  0  0  0  0
    0.6930   -1.6190   25.0780 C   0  0  0  0  0
    1.0260   -2.5620   22.6660 C   0  0  0  0  0
    2.6280   -2.3000  -17.3180 O   0  0  0  0  0
    3.0140    0.3410  -18.0390 O   0  0  0  0  0
    0.9600    2.0620  -17.6100 O   0  0  0  0  0
   -1.3440    1.0310  -16.4820 O   0  0  0  0  0
    1.2250   -3.9960  -16.3920 H   0  0  0  0  0
    0.1110   -3.5470  -15.0790 H   0  0  0  0  0
   -0.5240   -3.9010  -16.7030 H   0  0  0  0  0
    4.9770    0.5610  -17.4320 H   0  0  0  0  0
    3.7470    0.9460  -16.2040 H   0  0  0  0  0
    4.0710   -0.7490  -16.6380 H   0  0  0  0  0
    0.1030    3.3500  -18.9790 H   0  0  0  0  0
    0.4040    1.6960  -19.5660 H   0  0  0  0  0
   -0.9330    2.0090  -18.4340 H   0  0  0  0  0
   -2.6790   -1.0630  -16.0650 H   0  0  0  0  0
   -1.9980   -2.7050  -15.9740 H   0  0  0  0  0
   -0.9290   -1.9750  -13.6670 H   0  0  0  0  0
   -3.9290   -0.8160  -15.2860 H   0  0  0  0  0
   -4.8320   -0.8610  -13.7520 H   0  0  0  0  0
   -3.9930    0.6270  -14.2470 H   0  0  0  0  0
   -3.5370   -0.6550  -11.5890 H   0  0  0  0  0
   -1.9490   -1.4580  -11.6170 H   0  0  0  0  0
   -0.8850    0.6690  -12.3170 H   0  0  0  0  0
   -2.4730    1.4720  -12.2890 H   0  0  0  0  0
   -2.5700    0.8660   -9.7150 H   0  0  0  0  0
    0.2770    1.4730  -11.8350 H   0  0  0  0  0
    1.0570    2.4700  -10.5840 H   0  0  0  0  0
    1.3790    0.7210  -10.6560 H   0  0  0  0  0
    0.4310    2.0710   -8.1650 H   0  0  0  0  0
   -1.2820    1.6590   -7.9200 H   0  0  0  0  0
   -0.7210   -0.7520   -8.0480 H   0  0  0  0  0
    0.9930   -0.3400   -8.2940 H   0  0  0  0  0
    0.9040    0.8290   -5.9260 H   0  0  0  0  0
   -1.3790   -1.6610   -7.1930 H   0  0  0  0  0
   -1.1130   -2.7380   -5.8010 H   0  0  0  0  0
   -2.3760   -1.4850   -5.7290 H   0  0  0  0  0
   -0.2530   -1.7230   -3.6460 H   0  0  0  0  0
    0.9220   -0.4100   -3.8860 H   0  0  0  0  0
   -0.9140    1.2520   -3.7920 H   0  0  0  0  0
   -2.0910   -0.0610   -3.5520 H   0  0  0  0  0
   -0.9250   -0.6140   -1.3070 H   0  0  0  0  0
   -0.0830    2.3160   -3.2220 H   0  0  0  0  0
   -0.7300    3.3910   -1.9600 H   0  0  0  0  0
    0.9830    2.9120   -1.9280 H   0  0  0  0  0
   -0.4390    2.4810    0.5040 H   0  0  0  0  0
   -0.9980    0.7950    0.6300 H   0  0  0  0  0
    1.3210   -0.0000    0.2680 H   0  0  0  0  0
    1.8800    1.6840    0.1430 H   0  0  0  0  0
    0.9920    2.0030    2.6180 H   0  0  0  0  0
    2.1470   -0.9840    0.9670 H   0  0  0  0  0
    3.2730   -1.2970    2.3090 H   0  0  0  0  0
    1.6500   -2.0280    2.3210 H   0  0  0  0  0
    2.4590   -0.5450    4.6690 H   0  0  0  0  0
    1.7570    1.0890    4.6390 H   0  0  0  0  0
   -0.5050    0.1120    4.3630 H   0  0  0  0  0
    0.1970   -1.5220    4.3940 H   0  0  0  0  0
    1.0180   -1.0180    6.8250 H   0  0  0  0  0
   -1.3110    1.0890    5.0680 H   0  0  0  0  0
   -2.6400    0.6110    6.1520 H   0  0  0  0  0
   -1.6430    2.0340    6.5400 H   0  0  0  0  0
   -1.8820    0.1480    8.6520 H   0  0  0  0  0
   -0.4880   -0.9570    8.6920 H   0  0  0  0  0
    1.0490    0.9840    8.7950 H   0  0  0  0  0
   -0.3440    2.0910    8.7540 H   0  0  0  0  0
   -1.1230    1.0340   11.0160 H   0  0  0  0  0
    2.1280    0.4350    9.5930 H   0  0  0  0  0
    2.9210    1.3740   10.8810 H   0  0  0  0  0
    2.6820   -0.3780   11.0760 H   0  0  0  0  0
    1.7270    1.1900   13.2440 H   0  0  0  0  0
   -0.0170    1.5080   13.0930 H   0  0  0  0  0
   -0.4440   -0.9270   12.9090 H   0  0  0  0  0
    1.3000   -1.2450   13.0600 H   0  0  0  0  0
    1.1910   -0.1650   15.4400 H   0  0  0  0  0
   -1.7450   -1.0240   13.5430 H   0  0  0  0  0
   -2.1500   -2.3410   14.6700 H   0  0  0  0  0
   -2.8010   -0.7070   14.9400 H   0  0  0  0  0
   -1.4950   -1.8460   17.1920 H   0  0  0  0  0
    0.1930   -1.2950   17.3070 H   0  0  0  0  0
   -0.5710    1.0620   17.2500 H   0  0  0  0  0
   -2.2600    0.5120   17.1350 H   0  0  0  0  0
   -1.8830   -0.6610   19.4750 H   0  0  0  0  0
   -0.3190    2.2710   18.0900 H   0  0  0  0  0
   -0.4700    3.1410   19.6350 H   0  0  0  0  0
    0.9960    2.1970   19.2850 H   0  0  0  0  0
   -0.6120    1.7870   21.7670 H   0  0  0  0  0
   -1.5270    0.2690   21.6000 H   0  0  0  0  0
    0.5790   -0.9450   21.1110 H   0  0  0  0  0
    1.4930    0.5730   21.2790 H   0  0  0  0  0
    0.6440    0.6650   23.7680 H   0  0  0  0  0
    0.8090   -2.6810   25.2930 H   0  0  0  0  0
    1.4770   -1.0570   25.5850 H   0  0  0  0  0
   -0.2810   -1.2820   25.4300 H   0  0  0  0  0
    1.1800   -2.1960   21.6510 H   0  0  0  0  0
    1.9080   -3.1140   22.9910 H   0  0  0  0  0
    0.1570   -3.2200   22.6880 H   0  0  0  0  0
  1  2  1  0  0  0
  1  6  2  0  0  0
  1  7  1  0  0  0
  2  3  1  0  0  0
  2 60  2  0  0  0
  3  4  2  0  0  0
  3 61  1  0  0  0
  4  5  1  0  0  0
  4 62  1  0  0  0
  5  6  1  0  0  0
  5 63  2  0  0  0
  6 10  1  0  0  0
  7 64  1  0  0  0
  7 65  1  0  0  0
  7 66  1  0  0  0
  8 61  1  0  0  0
  8 67  1  0  0  0
  8 68  1  0  0  0
  8 69  1  0  0  0
  9 62  1  0  0  0
  9 70  1  0  0  0
  9 71  1  0  0  0
  9 72  1  0  0  0
 10 11  1  0  0  0
 10 73  1  0  0  0
 10 74  1  0  0  0
 11 12  2  0  0  0
 11 75  1  0  0  0
 12 13  1  0  0  0
 12 14  1  0  0  0
 13 76  1  0  0  0
 13 77  1  0  0  0
 13 78  1  0  0  0
 14 15  1  0  0  0
 14 79  1  0  0  0
 14 80  1  0  0  0
 15 16  1  0  0  0
 15 81  1  0  0  0
 15 82  1  0  0  0
 16 17  2  0  0  0
 16 83  1  0  0  0
 17 18  1  0  0  0
 17 19  1  0  0  0
 18 84  1  0  0  0
 18 85  1  0  0  0
 18 86  1  0  0  0
 19 20  1  0  0  0
 19 87  1  0  0  0
 19 88  1  0  0  0
 20 21  1  0  0  0
 20 89  1  0  0  0
 20 90  1  0  0  0
 21 22  2  0  0  0
 21 91  1  0  0  0
 22 23  1  0  0  0
 22 24  1  0  0  0
 23 92  1  0  0  0
 23 93  1  0  0  0
 23 94  1  0  0  0
 24 25  1  0  0  0
 24 95  1  0  0  0
 24 96  1  0  0  0
 25 26  1  0  0  0
 25 97  1  0  0  0
 25 98  1  0  0  0
 26 27  2  0  0  0
 26 99  1  0  0  0
 27 28  1  0  0  0
 27 29  1  0  0  0
 28100  1  0  0  0
 28101  1  0  0  0
 28102  1  0  0  0
 29 30  1  0  0  0
 29103  1  0  0  0
 29104  1  0  0  0
 30 31  1  0  0  0
 30105  1  0  0  0
 30106  1  0  0  0
 31 32  2  0  0  0
 31107  1  0  0  0
 32 33  1  0  0  0
 32 34  1  0  0  0
 33108  1  0  0  0
 33109  1  0  0  0
 33110  1  0  0  0
 34 35  1  0  0  0
 34111  1  0  0  0
 34112  1  0  0  0
 35 36  1  0  0  0
 35113  1  0  0  0
 35114  1  0  0  0
 36 37  2  0  0  0
 36115  1  0  0  0
 37 38  1  0  0  0
 37 39  1  0  0  0
 38116  1  0  0  0
 38117  1  0  0  0
 38118  1  0  0  0
 39 40  1  0  0  0
 39119  1  0  0  0
 39120  1  0  0  0
 40 41  1  0  0  0
 40121  1  0  0  0
 40122  1  0  0  0
 41 42  2  0  0  0
 41123  1  0  0  0
 42 43  1  0  0  0
 42 44  1  0  0  0
 43124  1  0  0  0
 43125  1  0  0  0
 43126  1  0  0  0
 44 45  1  0  0  0
 44127  1  0  0  0
 44128  1  0  0  0
 45 46  1  0  0  0
 45129  1  0  0  0
 45130  1  0  0  0
 46 47  2  0  0  0
 46131  1  0  0  0
 47 48  1  0  0  0
 47 49  1  0  0  0
 48132  1  0  0  0
 48133  1  0  0  0
 48134  1  0  0  0
 49 50  1  0  0  0
 49135  1  0  0  0
 49136  1  0  0  0
 50 51  1  0  0  0
 50137  1  0  0  0
 50138  1  0  0  0
 51 52  2  0  0  0
 51139  1  0  0  0
 52 53  1  0  0  0
 52 54  1  0  0  0
 53140  1  0  0  0
 53141  1  0  0  0
 53142  1  0  0  0
 54 55  1  0  0  0
 54143  1  0  0  0
 54144  1  0  0  0
 55 56  1  0  0  0
 55145  1  0  0  0
 55146  1  0  0  0
 56 57  2  0  0  0
 56147  1  0  0  0
 57 58  1  0  0  0
 57 59  1  0  0  0
 58148  1  0  0  0
 58149  1  0  0  0
 58150  1  0  0  0
 59151  1  0  0  0
 59152  1  0  0  0
 59153  1  0  0  0
M  END
$$$$
