UBI
  CCTOOLS-0919241038

 49 50  0  0  1  0  0  0  0  0999 V2000
    5.6620    1.6770    0.2040 P   0  0  0  0  0
   -0.5040   -0.9490    0.0990 N   0  0  0  0  0
   -0.4260   -0.6520   -1.2080 C   0  0  0  0  0
    0.6430   -0.7650   -1.7740 O   0  0  0  0  0
   -1.4930   -0.2330   -1.9100 N   0  0  0  0  0
   -2.6950   -0.0960   -1.3120 C   0  0  0  0  0
   -3.6640    0.2820   -1.9430 O   0  0  0  0  0
   -2.8080   -0.4150    0.1200 C   0  0  0  0  0
   -1.6730   -0.8400    0.7830 C   0  0  0  0  0
    0.6970   -1.4060    0.8020 C   0  0  0  0  0
    1.1560   -2.7610    0.2290 C   0  0  0  0  0
   -4.0910   -0.2850    0.8260 C   0  0  0  0  0
   -4.1900   -0.6500    1.9820 O   0  0  0  0  0
   -5.1590    0.2400    0.1910 N   0  0  0  0  0
   -6.4050    0.4730    0.9250 C   0  0  0  0  0
   -7.4500    1.0700   -0.0210 C   0  0  0  0  0
   -8.7870    1.1980    0.7110 C   0  0  0  0  0
   -6.9870    2.4530   -0.4840 C   0  0  0  0  0
    2.5990   -2.4960   -0.2620 C   0  0  0  0  0
    3.4560   -3.5950    0.0560 O   0  0  0  0  0
    2.9930   -1.2350    0.5490 C   0  0  0  0  0
    1.7680   -0.4690    0.6000 O   0  0  0  0  0
    4.0900   -0.4510   -0.1720 C   0  0  0  0  0
    4.5150    0.6390    0.6490 O   0  0  0  0  0
    6.8920    0.9340   -0.1460 O   0  0  0  0  0
    5.1590    2.5160   -1.0750 O   0  0  0  0  0
    5.9720    2.6870    1.4190 O   0  0  0  0  0
   -1.3980   -0.0280   -2.8540 H   0  0  0  0  0
   -1.7140   -1.0840    1.8340 H   0  0  0  0  0
    0.4880   -1.5050    1.8670 H   0  0  0  0  0
    1.1510   -3.5250    1.0060 H   0  0  0  0  0
    0.5160   -3.0600   -0.6020 H   0  0  0  0  0
   -5.1020    0.4620   -0.7510 H   0  0  0  0  0
   -6.7740   -0.4720    1.3240 H   0  0  0  0  0
   -6.2200    1.1670    1.7450 H   0  0  0  0  0
   -7.5700    0.4180   -0.8860 H   0  0  0  0  0
   -8.6660    1.8490    1.5770 H   0  0  0  0  0
   -9.5310    1.6220    0.0380 H   0  0  0  0  0
   -9.1160    0.2120    1.0420 H   0  0  0  0  0
   -6.0350    2.3610   -1.0060 H   0  0  0  0  0
   -7.7320    2.8780   -1.1580 H   0  0  0  0  0
   -6.8670    3.1040    0.3810 H   0  0  0  0  0
    2.6150   -2.2900   -1.3330 H   0  0  0  0  0
    3.1960   -4.4290   -0.3590 H   0  0  0  0  0
    3.3130   -1.5100    1.5540 H   0  0  0  0  0
    4.9370   -1.1090   -0.3690 H   0  0  0  0  0
    3.7020   -0.0650   -1.1150 H   0  0  0  0  0
    4.3550    3.0290   -0.9180 H   0  0  0  0  0
    6.6550    3.3430    1.2210 H   0  0  0  0  0
  1 26  1  0  0  0
  1 27  1  0  0  0
  2  3  1  0  0  0
  2  9  1  0  0  0
  3  5  1  0  0  0
  4  3  2  0  0  0
  5  6  1  0  0  0
  5 28  1  0  0  0
  6  7  2  0  0  0
  8  6  1  0  0  0
  8 12  1  0  0  0
  9  8  2  0  0  0
  9 29  1  0  0  0
 10  2  1  0  0  0
 10 30  1  0  0  0
 11 10  1  0  0  0
 11 31  1  0  0  0
 11 32  1  0  0  0
 12 14  1  0  0  0
 13 12  2  0  0  0
 14 15  1  0  0  0
 14 33  1  0  0  0
 15 16  1  0  0  0
 15 34  1  0  0  0
 15 35  1  0  0  0
 16 18  1  0  0  0
 16 36  1  0  0  0
 17 16  1  0  0  0
 17 37  1  0  0  0
 17 38  1  0  0  0
 17 39  1  0  0  0
 18 40  1  0  0  0
 18 41  1  0  0  0
 18 42  1  0  0  0
 19 11  1  0  0  0
 19 21  1  0  0  0
 19 43  1  0  0  0
 20 19  1  0  0  0
 20 44  1  0  0  0
 21 22  1  0  0  0
 21 45  1  0  0  0
 22 10  1  0  0  0
 23 21  1  0  0  0
 23 24  1  0  0  0
 23 46  1  0  0  0
 23 47  1  0  0  0
 24  1  1  0  0  0
 25  1  2  0  0  0
 26 48  1  0  0  0
 27 49  1  0  0  0
M  END
$$$$
