UDP
  CCTOOLS-1004241126

 39 40  0  0  1  0  0  0  0  0999 V2000
   -3.5860    0.4100    0.1930 N   0  0  0  0  0
   -4.5850    0.7980    1.0070 C   0  0  0  0  0
   -5.3350    1.8770    0.7170 N   0  0  0  0  0
   -5.0940    2.5910   -0.4010 C   0  0  0  0  0
   -4.0450    2.1950   -1.2660 C   0  0  0  0  0
   -3.3090    1.1070   -0.9510 C   0  0  0  0  0
   -4.8150    0.1630    2.0190 O   0  0  0  0  0
   -5.7710    3.5680   -0.6650 O   0  0  0  0  0
   -2.7840   -0.7660    0.5390 C   0  0  0  0  0
   -2.9900   -1.8930   -0.5050 C   0  0  0  0  0
   -4.1270   -2.6940   -0.1740 O   0  0  0  0  0
   -1.6810   -2.7080   -0.3660 C   0  0  0  0  0
   -0.6910   -1.7220    0.2830 C   0  0  0  0  0
   -1.3750   -0.4680    0.4380 O   0  0  0  0  0
   -1.8850   -3.8420    0.4790 O   0  0  0  0  0
    0.5300   -1.5400   -0.6210 C   0  0  0  0  0
    1.4940   -0.7180    0.0400 O   0  0  0  0  0
    2.9070   -0.3180   -0.6210 P   0  0  0  0  0
    3.6300   -1.5460   -1.0190 O   0  0  0  0  0
    2.6510    0.5990   -1.9200 O   0  0  0  0  0
    3.7870    0.5010    0.4490 O   0  0  0  0  0
    5.3430    0.9070    0.5410 P   0  0  0  0  0
    6.1760   -0.2270    0.0810 O   0  0  0  0  0
    5.6190    2.1890   -0.3930 O   0  0  0  0  0
    5.7160    1.2630    2.0660 O   0  0  0  0  0
   -6.0520    2.1430    1.3140 H   0  0  0  0  0
   -3.8370    2.7540   -2.1660 H   0  0  0  0  0
   -2.5060    0.7900   -1.5990 H   0  0  0  0  0
   -3.0340   -1.1190    1.5390 H   0  0  0  0  0
   -3.0870   -1.4800   -1.5100 H   0  0  0  0  0
   -4.2970   -3.4120   -0.7980 H   0  0  0  0  0
   -1.3210   -3.0210   -1.3460 H   0  0  0  0  0
   -0.3800   -2.0980    1.2580 H   0  0  0  0  0
   -2.5440   -4.4670    0.1460 H   0  0  0  0  0
    0.9700   -2.5140   -0.8370 H   0  0  0  0  0
    0.2250   -1.0640   -1.5530 H   0  0  0  0  0
    2.1790    1.4220   -1.7330 H   0  0  0  0  0
    5.1050    2.9710   -0.1480 H   0  0  0  0  0
    6.6400    1.5170    2.1960 H   0  0  0  0  0
  1  2  1  0  0  0
  1  6  1  0  0  0
  1  9  1  0  0  0
  2  3  1  0  0  0
  2  7  2  0  0  0
  3  4  1  0  0  0
  3 26  1  0  0  0
  4  5  1  0  0  0
  4  8  2  0  0  0
  5  6  2  0  0  0
  5 27  1  0  0  0
  6 28  1  0  0  0
  9 10  1  0  0  0
  9 14  1  0  0  0
  9 29  1  0  0  0
 10 11  1  0  0  0
 10 12  1  0  0  0
 10 30  1  0  0  0
 11 31  1  0  0  0
 12 13  1  0  0  0
 12 15  1  0  0  0
 12 32  1  0  0  0
 13 14  1  0  0  0
 13 16  1  0  0  0
 13 33  1  0  0  0
 15 34  1  0  0  0
 16 17  1  0  0  0
 16 35  1  0  0  0
 16 36  1  0  0  0
 17 18  1  0  0  0
 18 19  2  0  0  0
 18 20  1  0  0  0
 18 21  1  0  0  0
 20 37  1  0  0  0
 21 22  1  0  0  0
 22 23  2  0  0  0
 22 24  1  0  0  0
 22 25  1  0  0  0
 24 38  1  0  0  0
 25 39  1  0  0  0
M  END
$$$$
