UMA
  CCTOOLS-1004241127

 85 87  0  0  1  0  0  0  0  0999 V2000
   -0.4480    1.5830   -7.8100 N   0  0  0  0  0
    0.7550    0.9860   -7.7610 C   0  0  0  0  0
    1.8330    1.5530   -8.3350 N   0  0  0  0  0
    1.7220    2.7400   -8.9640 C   0  0  0  0  0
    0.4610    3.3820   -9.0190 C   0  0  0  0  0
   -0.6030    2.7890   -8.4390 C   0  0  0  0  0
    0.8700   -0.0850   -7.1970 O   0  0  0  0  0
    2.6970    3.2560   -9.4790 O   0  0  0  0  0
   -1.6040    0.9390   -7.1810 C   0  0  0  0  0
   -1.8060   -0.4920   -7.7380 C   0  0  0  0  0
   -2.5930   -0.4690   -8.9300 O   0  0  0  0  0
   -2.5750   -1.1850   -6.5820 C   0  0  0  0  0
   -2.2570   -0.3170   -5.3490 C   0  0  0  0  0
   -1.3610    0.7220   -5.7740 O   0  0  0  0  0
   -3.9790   -1.1920   -6.8490 O   0  0  0  0  0
   -1.5890   -1.1710   -4.2700 C   0  0  0  0  0
   -1.2920   -0.3570   -3.1340 O   0  0  0  0  0
   -0.5940   -1.3150   -2.0440 P   0  0  0  0  0
   -1.5240   -2.4060   -1.6790 O   0  0  0  0  0
    0.7520   -1.9420   -2.6650 O   0  0  0  0  0
   -0.2300   -0.4580   -0.7310 O   0  0  0  0  0
    0.4600   -1.4730    0.3100 P   0  0  0  0  0
    1.6810   -2.0470   -0.2960 O   0  0  0  0  0
   -0.5690   -2.6580    0.6670 O   0  0  0  0  0
    0.8510   -0.6780    1.6540 O   0  0  0  0  0
    1.4570   -1.6280    2.5340 C   0  0  0  0  0
    1.1720   -1.2260    3.9830 C   0  0  0  0  0
   -0.2740   -1.2280    4.2170 N   0  0  0  0  0
   -0.8860   -2.3490    4.6460 C   0  0  0  0  0
   -0.2390   -3.3570    4.8380 O   0  0  0  0  0
   -2.3740   -2.3510    4.8860 C   0  0  0  0  0
    1.7370    0.1760    4.2320 C   0  0  0  0  0
    1.6180    0.5020    5.6180 O   0  0  0  0  0
    3.2150    0.1920    3.8260 C   0  0  0  0  0
    3.7200    1.5260    3.9100 O   0  0  0  0  0
    3.3420   -0.3150    2.3870 C   0  0  0  0  0
    2.8640   -1.6560    2.3050 O   0  0  0  0  0
    4.8110   -0.2730    1.9610 C   0  0  0  0  0
    4.9310   -0.7470    0.6180 O   0  0  0  0  0
    0.4920    1.3730    5.7420 C   0  0  0  0  0
   -0.1410    1.1850    7.0960 C   0  0  0  0  0
    0.3240    0.3840    7.8780 O   0  0  0  0  0
    0.9520    2.8250    5.5910 C   0  0  0  0  0
   -1.2260    1.9080    7.4380 N   0  0  0  0  0
   -1.8430    1.7250    8.7550 C   0  0  0  0  0
   -3.3210    2.0070    8.6610 C   0  0  0  0  0
   -3.8080    2.3270    7.6030 O   0  0  0  0  0
   -4.0940    1.9020    9.7520 O   0  0  0  0  0
   -1.2030    2.6890    9.7560 C   0  0  0  0  0
    2.6930    1.1070   -8.2930 H   0  0  0  0  0
    0.3530    4.3340   -9.5180 H   0  0  0  0  0
   -1.5730    3.2630   -8.4710 H   0  0  0  0  0
   -2.5030    1.5380   -7.3270 H   0  0  0  0  0
   -0.8470   -0.9790   -7.9150 H   0  0  0  0  0
   -2.6810   -1.3860   -9.2250 H   0  0  0  0  0
   -2.2100   -2.2020   -6.4370 H   0  0  0  0  0
   -3.1760    0.1210   -4.9580 H   0  0  0  0  0
   -4.1060   -1.6990   -7.6630 H   0  0  0  0  0
   -0.6650   -1.5960   -4.6630 H   0  0  0  0  0
   -2.2620   -1.9760   -3.9740 H   0  0  0  0  0
    1.3290   -1.1990   -2.8890 H   0  0  0  0  0
   -1.3490   -2.2420    1.0600 H   0  0  0  0  0
    1.0380   -2.6160    2.3430 H   0  0  0  0  0
    1.6510   -1.9340    4.6590 H   0  0  0  0  0
   -0.7910   -0.4210    4.0630 H   0  0  0  0  0
   -2.6860   -3.3380    5.2270 H   0  0  0  0  0
   -2.6200   -1.6090    5.6460 H   0  0  0  0  0
   -2.8920   -2.1060    3.9590 H   0  0  0  0  0
    1.1860    0.9040    3.6370 H   0  0  0  0  0
    3.7840   -0.4550    4.4930 H   0  0  0  0  0
    4.6490    1.4900    3.6460 H   0  0  0  0  0
    2.7540    0.3200    1.7260 H   0  0  0  0  0
    5.1760    0.7520    2.0180 H   0  0  0  0  0
    5.4000   -0.9060    2.6240 H   0  0  0  0  0
    5.8690   -0.7030    0.3890 H   0  0  0  0  0
   -0.2340    1.1400    4.9650 H   0  0  0  0  0
    1.6650    3.0640    6.3800 H   0  0  0  0  0
    1.4270    2.9560    4.6200 H   0  0  0  0  0
    0.0900    3.4890    5.6670 H   0  0  0  0  0
   -1.5990    2.5490    6.8130 H   0  0  0  0  0
   -1.6890    0.6990    9.0890 H   0  0  0  0  0
   -5.0430    2.0820    9.6920 H   0  0  0  0  0
   -1.3570    3.7150    9.4220 H   0  0  0  0  0
   -1.6620    2.5530   10.7350 H   0  0  0  0  0
   -0.1340    2.4850    9.8240 H   0  0  0  0  0
  1  2  1  0  0  0
  1  6  1  0  0  0
  1  9  1  0  0  0
  2  3  1  0  0  0
  2  7  2  0  0  0
  3  4  1  0  0  0
  3 50  1  0  0  0
  4  5  1  0  0  0
  4  8  2  0  0  0
  5  6  2  0  0  0
  5 51  1  0  0  0
  6 52  1  0  0  0
  9 10  1  0  0  0
  9 14  1  0  0  0
  9 53  1  0  0  0
 10 11  1  0  0  0
 10 12  1  0  0  0
 10 54  1  0  0  0
 11 55  1  0  0  0
 12 13  1  0  0  0
 12 15  1  0  0  0
 12 56  1  0  0  0
 13 14  1  0  0  0
 13 16  1  0  0  0
 13 57  1  0  0  0
 15 58  1  0  0  0
 16 17  1  0  0  0
 16 59  1  0  0  0
 16 60  1  0  0  0
 17 18  1  0  0  0
 18 19  2  0  0  0
 18 20  1  0  0  0
 18 21  1  0  0  0
 20 61  1  0  0  0
 21 22  1  0  0  0
 22 23  2  0  0  0
 22 24  1  0  0  0
 22 25  1  0  0  0
 24 62  1  0  0  0
 25 26  1  0  0  0
 26 27  1  0  0  0
 26 37  1  0  0  0
 26 63  1  0  0  0
 27 28  1  0  0  0
 27 32  1  0  0  0
 27 64  1  0  0  0
 28 29  1  0  0  0
 28 65  1  0  0  0
 29 30  2  0  0  0
 29 31  1  0  0  0
 31 66  1  0  0  0
 31 67  1  0  0  0
 31 68  1  0  0  0
 32 33  1  0  0  0
 32 34  1  0  0  0
 32 69  1  0  0  0
 33 40  1  0  0  0
 34 35  1  0  0  0
 34 36  1  0  0  0
 34 70  1  0  0  0
 35 71  1  0  0  0
 36 37  1  0  0  0
 36 38  1  0  0  0
 36 72  1  0  0  0
 38 39  1  0  0  0
 38 73  1  0  0  0
 38 74  1  0  0  0
 39 75  1  0  0  0
 40 41  1  0  0  0
 40 43  1  0  0  0
 40 76  1  0  0  0
 41 42  2  0  0  0
 41 44  1  0  0  0
 43 77  1  0  0  0
 43 78  1  0  0  0
 43 79  1  0  0  0
 44 45  1  0  0  0
 44 80  1  0  0  0
 45 46  1  0  0  0
 45 49  1  0  0  0
 45 81  1  0  0  0
 46 47  2  0  0  0
 46 48  1  0  0  0
 48 82  1  0  0  0
 49 83  1  0  0  0
 49 84  1  0  0  0
 49 85  1  0  0  0
M  END
$$$$
