UMK
  CCTOOLS-0919241039

 28 29  0  0  0  0  0  0  0  0999 V2000
   -3.8380   -0.1220    0.0770 BR  0  0  0  0  0
   -1.9530    0.0030   -0.0070 C   0  0  0  0  0
   -1.3470    1.2400   -0.1330 C   0  0  0  0  0
    0.0310    1.3310   -0.1950 C   0  0  0  0  0
   -1.1790   -1.1420    0.0620 C   0  0  0  0  0
    0.1980   -1.0490   -0.0000 C   0  0  0  0  0
    0.8030    0.1860   -0.1320 C   0  0  0  0  0
    2.3060    0.2860   -0.2000 C   0  0  0  0  0
    2.6740    1.4230   -0.9840 O   0  0  0  0  0
    2.8740   -0.9830   -0.8410 C   0  0  0  0  0
    4.4030   -0.9020   -0.8520 C   0  0  0  0  0
    4.8970   -0.7630    0.5240 N   0  0  0  0  0
    4.4020    0.4730    1.1440 C   0  0  0  0  0
    2.8730    0.4350    1.2140 C   0  0  0  0  0
   -1.9500    2.1350   -0.1830 H   0  0  0  0  0
   -1.6520   -2.1070    0.1650 H   0  0  0  0  0
    0.5050    2.2970   -0.2930 H   0  0  0  0  0
    0.8020   -1.9430    0.0540 H   0  0  0  0  0
    2.3480    2.2640   -0.6350 H   0  0  0  0  0
    2.5600   -1.8530   -0.2650 H   0  0  0  0  0
    2.5070   -1.0700   -1.8630 H   0  0  0  0  0
    2.5050    1.3600    1.6590 H   0  0  0  0  0
    2.5590   -0.4130    1.8230 H   0  0  0  0  0
    4.8110   -1.8110   -1.2940 H   0  0  0  0  0
    4.7160   -0.0390   -1.4390 H   0  0  0  0  0
    4.6520   -1.5690    1.0800 H   0  0  0  0  0
    4.8090    0.5630    2.1510 H   0  0  0  0  0
    4.7150    1.3290    0.5470 H   0  0  0  0  0
  1  2  1  0  0  0
  2  3  1  0  0  0
  2  5  2  0  0  0
  3  4  2  0  0  0
  3 15  1  0  0  0
  4  7  1  0  0  0
  4 17  1  0  0  0
  5  6  1  0  0  0
  5 16  1  0  0  0
  6  7  2  0  0  0
  6 18  1  0  0  0
  7  8  1  0  0  0
  8  9  1  0  0  0
  8 10  1  0  0  0
  8 14  1  0  0  0
  9 19  1  0  0  0
 10 11  1  0  0  0
 10 20  1  0  0  0
 10 21  1  0  0  0
 11 12  1  0  0  0
 11 24  1  0  0  0
 11 25  1  0  0  0
 12 13  1  0  0  0
 12 26  1  0  0  0
 13 14  1  0  0  0
 13 27  1  0  0  0
 13 28  1  0  0  0
 14 22  1  0  0  0
 14 23  1  0  0  0
M  END
$$$$
