UMP
  CCTOOLS-1004241127

 33 34  0  0  1  0  0  0  0  0999 V2000
   -2.4600    0.1570   -0.2250 N   0  0  0  0  0
   -3.5080   -0.0690   -1.0380 C   0  0  0  0  0
   -4.5270   -0.8600   -0.6500 N   0  0  0  0  0
   -4.5100   -1.4410    0.5670 C   0  0  0  0  0
   -3.4130   -1.2110    1.4320 C   0  0  0  0  0
   -2.4060   -0.4140    1.0180 C   0  0  0  0  0
   -3.5360    0.4480   -2.1380 O   0  0  0  0  0
   -5.4310   -2.1560    0.9190 O   0  0  0  0  0
   -1.3640    1.0170   -0.6770 C   0  0  0  0  0
   -1.2990    2.2850    0.1970 C   0  0  0  0  0
    0.1270    2.2580    0.7980 C   0  0  0  0  0
    0.8780    1.3270   -0.1870 C   0  0  0  0  0
    0.7030    3.5660    0.8030 O   0  0  0  0  0
   -0.1100    0.3310   -0.5280 O   0  0  0  0  0
    2.0830    0.6780    0.4970 C   0  0  0  0  0
    2.8230   -0.0820   -0.4610 O   0  0  0  0  0
    4.1570   -0.9010   -0.0880 P   0  0  0  0  0
    5.1360    0.0110    0.5440 O   0  0  0  0  0
    3.7900   -2.0880    0.9360 O   0  0  0  0  0
    4.7940   -1.5270   -1.4280 O   0  0  0  0  0
   -5.2750   -1.0120   -1.2480 H   0  0  0  0  0
   -3.3830   -1.6680    2.4100 H   0  0  0  0  0
   -1.5610   -0.2280    1.6640 H   0  0  0  0  0
   -1.5160    1.2940   -1.7200 H   0  0  0  0  0
   -1.4390    3.1770   -0.4140 H   0  0  0  0  0
   -2.0480    2.2420    0.9880 H   0  0  0  0  0
    0.1180    1.8350    1.8030 H   0  0  0  0  0
    1.1890    1.8780   -1.0740 H   0  0  0  0  0
    0.2150    4.2090    1.3350 H   0  0  0  0  0
    2.7230    1.4540    0.9180 H   0  0  0  0  0
    1.7380    0.0200    1.2940 H   0  0  0  0  0
    3.1520   -2.7250    0.5870 H   0  0  0  0  0
    5.6030   -2.0350   -1.2790 H   0  0  0  0  0
  1  2  1  0  0  0
  1  6  1  0  0  0
  1  9  1  0  0  0
  2  3  1  0  0  0
  2  7  2  0  0  0
  3  4  1  0  0  0
  3 21  1  0  0  0
  4  5  1  0  0  0
  4  8  2  0  0  0
  5  6  2  0  0  0
  5 22  1  0  0  0
  6 23  1  0  0  0
  9 10  1  0  0  0
  9 14  1  0  0  0
  9 24  1  0  0  0
 10 11  1  0  0  0
 10 25  1  0  0  0
 10 26  1  0  0  0
 11 12  1  0  0  0
 11 13  1  0  0  0
 11 27  1  0  0  0
 12 14  1  0  0  0
 12 15  1  0  0  0
 12 28  1  0  0  0
 13 29  1  0  0  0
 15 16  1  0  0  0
 15 30  1  0  0  0
 15 31  1  0  0  0
 16 17  1  0  0  0
 17 18  2  0  0  0
 17 19  1  0  0  0
 17 20  1  0  0  0
 19 32  1  0  0  0
 20 33  1  0  0  0
M  END
$$$$
