UMQ
  CCTOOLS-0919241039

 78 79  0  0  1  0  0  0  0  0999 V2000
    0.5240    0.4680   -6.5170 C   0  0  0  0  0
   -1.9350    0.0850   -6.5120 C   0  0  0  0  0
   -1.7180   -0.6750   -5.2020 C   0  0  0  0  0
   -2.8260   -1.7170   -5.0310 C   0  0  0  0  0
    1.5530    1.4590   -6.5040 O   0  0  0  0  0
   -3.2170    0.7160   -6.4920 O   0  0  0  0  0
    0.5560   -0.3210   -5.2070 C   0  0  0  0  0
   -0.8400    1.1480   -6.6590 C   0  0  0  0  0
    0.3180    0.5650   -4.1120 O   0  0  0  0  0
   -0.9410    1.7660   -7.9430 O   0  0  0  0  0
   -0.4510   -1.3300   -5.2270 O   0  0  0  0  0
   -2.6290   -2.4240   -3.8050 O   0  0  0  0  0
    1.6740    0.0390   -0.2580 C   0  0  0  0  0
    2.5770   -0.5620   -1.3380 C   0  0  0  0  0
    2.2130    0.0540   -2.6930 C   0  0  0  0  0
    0.7080   -0.1280   -2.9260 C   0  0  0  0  0
   -0.0530    0.4380   -1.7260 C   0  0  0  0  0
   -1.5570    0.2890   -1.9640 C   0  0  0  0  0
    2.0290   -0.5050    1.0140 O   0  0  0  0  0
    2.9410   -0.6010   -3.7330 O   0  0  0  0  0
    0.3110   -0.2690   -0.5430 O   0  0  0  0  0
   -2.2720    0.8960   -0.8860 O   0  0  0  0  0
    3.9430   -0.2740   -1.0340 O   0  0  0  0  0
    1.1590    0.0930    1.9760 C   0  0  0  0  0
    1.4870   -0.4490    3.3680 C   0  0  0  0  0
    0.5550    0.1910    4.3980 C   0  0  0  0  0
    0.8840   -0.3510    5.7910 C   0  0  0  0  0
   -0.0470    0.2890    6.8210 C   0  0  0  0  0
    0.2800   -0.2520    8.2130 C   0  0  0  0  0
   -0.6510    0.3880    9.2440 C   0  0  0  0  0
   -0.3220   -0.1540   10.6360 C   0  0  0  0  0
   -1.2540    0.4860   11.6660 C   0  0  0  0  0
   -0.9250   -0.0560   13.0580 C   0  0  0  0  0
   -1.8570    0.5840   14.0890 C   0  0  0  0  0
    0.6820   -0.2090   -7.3560 H   0  0  0  0  0
   -1.8830   -0.6090   -7.3500 H   0  0  0  0  0
   -1.7470    0.0240   -4.3670 H   0  0  0  0  0
   -3.7940   -1.2170   -5.0110 H   0  0  0  0  0
   -2.7960   -2.4190   -5.8640 H   0  0  0  0  0
    2.3930    0.9890   -6.4130 H   0  0  0  0  0
   -3.3120    1.1820   -7.3340 H   0  0  0  0  0
    1.5340   -0.7880   -5.0890 H   0  0  0  0  0
   -0.9560    1.9020   -5.8800 H   0  0  0  0  0
   -0.2360    2.4260   -7.9920 H   0  0  0  0  0
   -3.3470   -3.0690   -3.7360 H   0  0  0  0  0
    1.8040    1.1210   -0.2390 H   0  0  0  0  0
    2.4320   -1.6410   -1.3770 H   0  0  0  0  0
    2.4560    1.1160   -2.6910 H   0  0  0  0  0
    0.4820   -1.1890   -3.0330 H   0  0  0  0  0
    0.1920    1.4930   -1.6070 H   0  0  0  0  0
   -1.8270    0.7780   -2.9000 H   0  0  0  0  0
   -1.8130   -0.7680   -2.0200 H   0  0  0  0  0
    3.8800   -0.4610   -3.5480 H   0  0  0  0  0
   -3.2130    0.7810   -1.0750 H   0  0  0  0  0
    4.1300   -0.6790   -0.1760 H   0  0  0  0  0
    0.1240   -0.1440    1.7280 H   0  0  0  0  0
    1.2950    1.1740    1.9660 H   0  0  0  0  0
    2.5220   -0.2110    3.6160 H   0  0  0  0  0
    1.3510   -1.5300    3.3780 H   0  0  0  0  0
   -0.4780   -0.0460    4.1500 H   0  0  0  0  0
    0.6910    1.2730    4.3890 H   0  0  0  0  0
    1.9180   -0.1120    6.0390 H   0  0  0  0  0
    0.7480   -1.4320    5.8010 H   0  0  0  0  0
   -1.0820    0.0510    6.5730 H   0  0  0  0  0
    0.0880    1.3710    6.8110 H   0  0  0  0  0
    1.3150   -0.0140    8.4610 H   0  0  0  0  0
    0.1440   -1.3340    8.2230 H   0  0  0  0  0
   -1.6850    0.1490    8.9960 H   0  0  0  0  0
   -0.5140    1.4690    9.2340 H   0  0  0  0  0
    0.7110    0.0830   10.8840 H   0  0  0  0  0
   -0.4580   -1.2360   10.6460 H   0  0  0  0  0
   -2.2880    0.2480   11.4180 H   0  0  0  0  0
   -1.1180    1.5670   11.6560 H   0  0  0  0  0
    0.1080    0.1810   13.3060 H   0  0  0  0  0
   -1.0620   -1.1380   13.0680 H   0  0  0  0  0
   -1.6230    0.1970   15.0800 H   0  0  0  0  0
   -1.7210    1.6650   14.0790 H   0  0  0  0  0
   -2.8920    0.3460   13.8410 H   0  0  0  0  0
  1  5  1  0  0  0
  1  7  1  0  0  0
  1  8  1  0  0  0
  1 35  1  0  0  0
  2  3  1  0  0  0
  2  6  1  0  0  0
  2  8  1  0  0  0
  2 36  1  0  0  0
  3  4  1  0  0  0
  3 11  1  0  0  0
  3 37  1  0  0  0
  4 12  1  0  0  0
  4 38  1  0  0  0
  4 39  1  0  0  0
  5 40  1  0  0  0
  6 41  1  0  0  0
  7  9  1  0  0  0
  7 11  1  0  0  0
  7 42  1  0  0  0
  8 10  1  0  0  0
  8 43  1  0  0  0
  9 16  1  0  0  0
 10 44  1  0  0  0
 12 45  1  0  0  0
 13 14  1  0  0  0
 13 19  1  0  0  0
 13 21  1  0  0  0
 13 46  1  0  0  0
 14 15  1  0  0  0
 14 23  1  0  0  0
 14 47  1  0  0  0
 15 16  1  0  0  0
 15 20  1  0  0  0
 15 48  1  0  0  0
 16 17  1  0  0  0
 16 49  1  0  0  0
 17 18  1  0  0  0
 17 21  1  0  0  0
 17 50  1  0  0  0
 18 22  1  0  0  0
 18 51  1  0  0  0
 18 52  1  0  0  0
 19 24  1  0  0  0
 20 53  1  0  0  0
 22 54  1  0  0  0
 23 55  1  0  0  0
 24 25  1  0  0  0
 24 56  1  0  0  0
 24 57  1  0  0  0
 25 26  1  0  0  0
 25 58  1  0  0  0
 25 59  1  0  0  0
 26 27  1  0  0  0
 26 60  1  0  0  0
 26 61  1  0  0  0
 27 28  1  0  0  0
 27 62  1  0  0  0
 27 63  1  0  0  0
 28 29  1  0  0  0
 28 64  1  0  0  0
 28 65  1  0  0  0
 29 30  1  0  0  0
 29 66  1  0  0  0
 29 67  1  0  0  0
 30 31  1  0  0  0
 30 68  1  0  0  0
 30 69  1  0  0  0
 31 32  1  0  0  0
 31 70  1  0  0  0
 31 71  1  0  0  0
 32 33  1  0  0  0
 32 72  1  0  0  0
 32 73  1  0  0  0
 33 34  1  0  0  0
 33 74  1  0  0  0
 33 75  1  0  0  0
 34 76  1  0  0  0
 34 77  1  0  0  0
 34 78  1  0  0  0
M  END
$$$$
