UNK
  CCTOOLS-0919241039

 16 15  0  0  1  0  0  0  0  0999 V2000
    1.8270   -0.4980   -1.2780 N   0  0  0  0  0
    2.1450   -1.1620   -2.5170 C   0  0  0  0  0
    1.5760   -0.4290   -3.7190 C   0  0  0  0  0
    0.8500    0.5540   -3.6350 O   0  0  0  0  0
    1.7190   -2.6340   -2.4910 C   0  0  0  0  0
    0.2110   -2.8550   -2.4690 C   0  0  0  0  0
    1.9590   -0.9640   -4.9030 O   0  0  0  0  0
    0.9000   -0.1310   -1.1450 H   0  0  0  0  0
    2.5760   -0.2330   -0.6600 H   0  0  0  0  0
    3.2360   -1.1080   -2.6080 H   0  0  0  0  0
    2.1520   -3.1220   -1.6090 H   0  0  0  0  0
    2.1320   -3.1460   -3.3700 H   0  0  0  0  0
   -0.2500   -2.3870   -1.5940 H   0  0  0  0  0
   -0.0070   -3.9270   -2.4270 H   0  0  0  0  0
   -0.2680   -2.4560   -3.3680 H   0  0  0  0  0
    1.5870   -0.4710   -5.6650 H   0  0  0  0  0
  1  2  1  0  0  0
  1  8  1  0  0  0
  1  9  1  0  0  0
  2  3  1  0  0  0
  2  5  1  0  0  0
  2 10  1  0  0  0
  3  4  2  0  0  0
  3  7  1  0  0  0
  5  6  1  0  0  0
  5 11  1  0  0  0
  5 12  1  0  0  0
  6 13  1  0  0  0
  6 14  1  0  0  0
  6 15  1  0  0  0
  7 16  1  0  0  0
M  END
$$$$
