UO1
  CCTOOLS-0919241040

 42 44  0  0  0  0  0  0  0  0999 V2000
    3.3130    2.9670   -0.9980 C   0  0  0  0  0
    3.4600    1.4720   -0.8740 C   0  0  0  0  0
    4.4930    0.9350   -1.2130 O   0  0  0  0  0
    2.4440    0.7330   -0.3880 N   0  0  0  0  0
    1.2250    1.2310    0.0220 C   0  0  0  0  0
    0.4410    0.2230    0.4460 C   0  0  0  0  0
   -0.8700    0.3350    0.9370 N   0  0  0  0  0
   -1.0820    0.5190    2.2550 C   0  0  0  0  0
    0.0870    0.6060    3.2020 C   0  0  0  0  0
   -2.2150    0.6160    2.6790 O   0  0  0  0  0
   -1.9560    0.2550    0.0570 C   0  0  0  0  0
   -2.4500    1.4060   -0.5440 C   0  0  0  0  0
   -1.8170    2.7410   -0.2500 C   0  0  0  0  0
   -3.5220    1.3270   -1.4120 C   0  0  0  0  0
   -4.1050    0.1030   -1.6850 C   0  0  0  0  0
   -3.6160   -1.0490   -1.0870 C   0  0  0  0  0
   -2.5370   -0.9750   -0.2190 C   0  0  0  0  0
   -4.1900   -2.2510   -1.3550 O   0  0  0  0  0
    1.2160   -1.0180    0.2970 C   0  0  0  0  0
    2.4630   -0.6420   -0.2290 C   0  0  0  0  0
    3.4190   -1.6170   -0.4850 C   0  0  0  0  0
    3.1410   -2.9400   -0.2160 C   0  0  0  0  0
    1.9120   -3.3110    0.3090 C   0  0  0  0  0
    0.9480   -2.3610    0.5620 C   0  0  0  0  0
    4.2300    3.3900   -1.4070 H   0  0  0  0  0
    2.4790    3.1960   -1.6610 H   0  0  0  0  0
    3.1230    3.3950   -0.0140 H   0  0  0  0  0
    0.9420    2.2730    0.0050 H   0  0  0  0  0
    1.0160    0.4980    2.6420 H   0  0  0  0  0
    0.0760    1.5720    3.7050 H   0  0  0  0  0
    0.0140   -0.1910    3.9420 H   0  0  0  0  0
   -2.3120    3.1960    0.6080 H   0  0  0  0  0
   -0.7590    2.6000   -0.0260 H   0  0  0  0  0
   -1.9210    3.3920   -1.1170 H   0  0  0  0  0
   -3.9050    2.2220   -1.8790 H   0  0  0  0  0
   -4.9420    0.0450   -2.3640 H   0  0  0  0  0
   -2.1520   -1.8710    0.2430 H   0  0  0  0  0
   -3.8000   -2.7140   -2.1100 H   0  0  0  0  0
    4.3790   -1.3380   -0.8940 H   0  0  0  0  0
    3.8870   -3.6950   -0.4160 H   0  0  0  0  0
    1.7080   -4.3520    0.5140 H   0  0  0  0  0
   -0.0100   -2.6530    0.9670 H   0  0  0  0  0
  1  2  1  0  0  0
  1 25  1  0  0  0
  1 26  1  0  0  0
  1 27  1  0  0  0
  2  3  2  0  0  0
  4 20  1  0  0  0
  4  2  1  0  0  0
  5  4  1  0  0  0
  5 28  1  0  0  0
  6  5  2  0  0  0
  6 19  1  0  0  0
  7 11  1  0  0  0
  7  6  1  0  0  0
  8  7  1  0  0  0
  9  8  1  0  0  0
  9 29  1  0  0  0
  9 30  1  0  0  0
  9 31  1  0  0  0
 10  8  2  0  0  0
 11 17  2  0  0  0
 12 14  2  0  0  0
 12 11  1  0  0  0
 13 12  1  0  0  0
 13 32  1  0  0  0
 13 33  1  0  0  0
 13 34  1  0  0  0
 14 15  1  0  0  0
 14 35  1  0  0  0
 15 16  2  0  0  0
 15 36  1  0  0  0
 16 18  1  0  0  0
 17 16  1  0  0  0
 17 37  1  0  0  0
 18 38  1  0  0  0
 19 24  2  0  0  0
 19 20  1  0  0  0
 20 21  2  0  0  0
 21 22  1  0  0  0
 21 39  1  0  0  0
 22 40  1  0  0  0
 23 22  2  0  0  0
 23 41  1  0  0  0
 24 23  1  0  0  0
 24 42  1  0  0  0
M  END
$$$$
