UPE
  CCTOOLS-0919241040

 53 55  0  0  1  0  0  0  0  0999 V2000
   -6.7290    1.9740   -0.0980 P   0  0  0  0  0
   -0.7360   -1.0780    0.0440 N   0  0  0  0  0
   -0.8560   -1.0310    1.3800 C   0  0  0  0  0
   -1.9550   -1.1840    1.8770 O   0  0  0  0  0
    0.1980   -0.8200    2.1860 N   0  0  0  0  0
    1.4320   -0.6470    1.6660 C   0  0  0  0  0
    2.3910   -0.4560    2.3910 O   0  0  0  0  0
    1.5920   -0.6940    0.2040 C   0  0  0  0  0
    0.4670   -0.9140   -0.5660 C   0  0  0  0  0
   -1.9270   -1.3170   -0.7740 C   0  0  0  0  0
   -2.5410   -2.6950   -0.4400 C   0  0  0  0  0
    2.9110   -0.5120   -0.4190 C   0  0  0  0  0
    3.0420   -0.6560   -1.6200 O   0  0  0  0  0
    3.9760   -0.1850    0.3400 N   0  0  0  0  0
    5.2650    0.1060   -0.2920 C   0  0  0  0  0
    6.2970    0.4450    0.7860 C   0  0  0  0  0
    7.6230    0.7440    0.1360 C   0  0  0  0  0
    7.9320    2.0380   -0.2410 C   0  0  0  0  0
    9.1480    2.3120   -0.8370 C   0  0  0  0  0
   10.0560    1.2930   -1.0570 C   0  0  0  0  0
   -4.0650   -2.4580   -0.5280 C   0  0  0  0  0
   -4.6420   -3.2820   -1.5440 O   0  0  0  0  0
    9.7470   -0.0010   -0.6810 C   0  0  0  0  0
    8.5320   -0.2740   -0.0790 C   0  0  0  0  0
   -4.1920   -0.9660   -0.9050 C   0  0  0  0  0
   -2.9620   -0.3640   -0.4470 O   0  0  0  0  0
   -5.3900   -0.3360   -0.1910 C   0  0  0  0  0
   -5.5600    1.0090   -0.6400 O   0  0  0  0  0
   -8.0410    1.3170   -0.2910 O   0  0  0  0  0
   -6.5000    2.2660    1.4690 O   0  0  0  0  0
   -6.6990    3.3630   -0.9120 O   0  0  0  0  0
    0.0720   -0.7920    3.1470 H   0  0  0  0  0
    0.5420   -0.9560   -1.6430 H   0  0  0  0  0
   -1.6770   -1.2580   -1.8330 H   0  0  0  0  0
   -2.2270   -3.4400   -1.1720 H   0  0  0  0  0
   -2.2600   -3.0050    0.5660 H   0  0  0  0  0
    3.8880   -0.1430    1.3060 H   0  0  0  0  0
    5.6000   -0.7670   -0.8530 H   0  0  0  0  0
    5.1550    0.9530   -0.9690 H   0  0  0  0  0
    5.9620    1.3180    1.3470 H   0  0  0  0  0
    6.4070   -0.4020    1.4630 H   0  0  0  0  0
    7.2230    2.8340   -0.0690 H   0  0  0  0  0
    9.3900    3.3230   -1.1310 H   0  0  0  0  0
   11.0060    1.5070   -1.5240 H   0  0  0  0  0
   -4.5380   -2.6510    0.4350 H   0  0  0  0  0
   -4.5370   -4.2300   -1.3880 H   0  0  0  0  0
   10.4550   -0.7980   -0.8540 H   0  0  0  0  0
    8.2930   -1.2840    0.2190 H   0  0  0  0  0
   -4.2910   -0.8540   -1.9840 H   0  0  0  0  0
   -6.2890   -0.9110   -0.4150 H   0  0  0  0  0
   -5.2150   -0.3410    0.8850 H   0  0  0  0  0
   -5.6580    2.6970    1.6700 H   0  0  0  0  0
   -7.3780    3.9950   -0.6370 H   0  0  0  0  0
  1 30  1  0  0  0
  2  9  1  0  0  0
  3  2  1  0  0  0
  3  5  1  0  0  0
  4  3  2  0  0  0
  5  6  1  0  0  0
  5 32  1  0  0  0
  6  7  2  0  0  0
  6  8  1  0  0  0
  8 12  1  0  0  0
  9  8  2  0  0  0
  9 33  1  0  0  0
 10  2  1  0  0  0
 10 26  1  0  0  0
 10 34  1  0  0  0
 11 10  1  0  0  0
 11 21  1  0  0  0
 11 35  1  0  0  0
 11 36  1  0  0  0
 12 13  2  0  0  0
 12 14  1  0  0  0
 14 15  1  0  0  0
 14 37  1  0  0  0
 15 16  1  0  0  0
 15 38  1  0  0  0
 15 39  1  0  0  0
 16 17  1  0  0  0
 16 40  1  0  0  0
 16 41  1  0  0  0
 17 18  1  0  0  0
 18 19  2  0  0  0
 18 42  1  0  0  0
 19 43  1  0  0  0
 20 19  1  0  0  0
 20 44  1  0  0  0
 21 25  1  0  0  0
 21 45  1  0  0  0
 22 21  1  0  0  0
 22 46  1  0  0  0
 23 20  2  0  0  0
 23 47  1  0  0  0
 24 17  2  0  0  0
 24 23  1  0  0  0
 24 48  1  0  0  0
 25 26  1  0  0  0
 25 27  1  0  0  0
 25 49  1  0  0  0
 27 28  1  0  0  0
 27 50  1  0  0  0
 27 51  1  0  0  0
 28  1  1  0  0  0
 29  1  2  0  0  0
 30 52  1  0  0  0
 31  1  1  0  0  0
 31 53  1  0  0  0
M  END
$$$$
