UPF
  CCTOOLS-0919241040

 59 61  0  0  1  0  0  0  0  0999 V2000
    0.8580   -0.6740    5.8050 N   0  0  0  0  0
    1.5900    0.3720    5.3830 C   0  0  0  0  0
    2.8700    0.5230    5.7720 N   0  0  0  0  0
    3.4440   -0.3830    6.5880 C   0  0  0  0  0
    2.6860   -1.4930    7.0360 C   0  0  0  0  0
    1.4030   -1.6170    6.6340 C   0  0  0  0  0
    1.0860    1.1980    4.6470 O   0  0  0  0  0
    4.6030   -0.2500    6.9360 O   0  0  0  0  0
   -0.5330   -0.8090    5.3690 C   0  0  0  0  0
   -1.3460    0.4600    5.7260 C   0  0  0  0  0
   -1.8580    0.3810    7.0580 O   0  0  0  0  0
   -2.4970    0.4120    4.6870 C   0  0  0  0  0
   -1.9510   -0.4930    3.5660 C   0  0  0  0  0
   -0.6110   -0.8660    3.9290 O   0  0  0  0  0
   -3.6730   -0.1550    5.2700 O   0  0  0  0  0
   -1.9380    0.2700    2.2410 C   0  0  0  0  0
   -1.4240   -0.5740    1.2090 O   0  0  0  0  0
   -1.4380    0.2880   -0.1490 P   0  0  0  0  0
   -2.8250    0.7040   -0.4540 O   0  0  0  0  0
   -0.5140    1.5930    0.0330 O   0  0  0  0  0
   -0.8690   -0.6070   -1.3590 O   0  0  0  0  0
   -0.9120    0.3130   -2.6800 P   0  0  0  0  0
   -2.3070    0.7290   -2.9460 O   0  0  0  0  0
    0.0030    1.6180   -2.4540 O   0  0  0  0  0
   -0.3520   -0.5230   -3.9360 O   0  0  0  0  0
   -0.4160    0.3420   -5.0710 C   0  0  0  0  0
   -0.6430   -0.4910   -6.3340 C   0  0  0  0  0
    0.5030   -1.4960   -6.4820 C   0  0  0  0  0
    1.8320   -0.7330   -6.4350 C   0  0  0  0  0
    1.8730    0.1170   -5.1630 C   0  0  0  0  0
    3.2100    0.8560   -5.0890 C   0  0  0  0  0
   -1.8580   -1.1770   -6.2290 F   0  0  0  0  0
    0.3830   -2.1800   -7.7310 O   0  0  0  0  0
    1.9390    0.1100   -7.5830 O   0  0  0  0  0
    0.8080    1.0650   -5.1840 O   0  0  0  0  0
    3.2510    1.6490   -3.9010 O   0  0  0  0  0
    3.3820    1.2850    5.4610 H   0  0  0  0  0
    3.1290   -2.2290    7.6900 H   0  0  0  0  0
    0.8100   -2.4560    6.9660 H   0  0  0  0  0
   -0.9890   -1.6940    5.8140 H   0  0  0  0  0
   -0.7410    1.3580    5.5960 H   0  0  0  0  0
   -2.3510    1.1980    7.2160 H   0  0  0  0  0
   -2.7070    1.4100    4.3030 H   0  0  0  0  0
   -2.5720   -1.3840    3.4740 H   0  0  0  0  0
   -3.9300    0.4230    6.0000 H   0  0  0  0  0
   -1.3060    1.1520    2.3360 H   0  0  0  0  0
   -2.9530    0.5760    1.9870 H   0  0  0  0  0
    0.3780    1.2780    0.2300 H   0  0  0  0  0
    0.9020    1.3030   -2.2840 H   0  0  0  0  0
   -1.2410    1.0430   -4.9460 H   0  0  0  0  0
   -0.6690    0.1640   -7.2040 H   0  0  0  0  0
    0.4650   -2.2180   -5.6660 H   0  0  0  0  0
    2.6590   -1.4420   -6.4240 H   0  0  0  0  0
    1.7670   -0.5280   -4.2920 H   0  0  0  0  0
    3.3170    1.5020   -5.9600 H   0  0  0  0  0
    4.0250    0.1320   -5.0710 H   0  0  0  0  0
   -0.4690   -2.6340   -7.7210 H   0  0  0  0  0
    1.9030   -0.4660   -8.3580 H   0  0  0  0  0
    4.1080    2.0960   -3.8930 H   0  0  0  0  0
  1  2  1  0  0  0
  1  6  1  0  0  0
  1  9  1  0  0  0
  2  3  1  0  0  0
  2  7  2  0  0  0
  3  4  1  0  0  0
  3 37  1  0  0  0
  4  5  1  0  0  0
  4  8  2  0  0  0
  5  6  2  0  0  0
  5 38  1  0  0  0
  6 39  1  0  0  0
  9 10  1  0  0  0
  9 14  1  0  0  0
  9 40  1  0  0  0
 10 11  1  0  0  0
 10 12  1  0  0  0
 10 41  1  0  0  0
 11 42  1  0  0  0
 12 13  1  0  0  0
 12 15  1  0  0  0
 12 43  1  0  0  0
 13 14  1  0  0  0
 13 16  1  0  0  0
 13 44  1  0  0  0
 15 45  1  0  0  0
 16 17  1  0  0  0
 16 46  1  0  0  0
 16 47  1  0  0  0
 17 18  1  0  0  0
 18 19  2  0  0  0
 18 20  1  0  0  0
 18 21  1  0  0  0
 20 48  1  0  0  0
 21 22  1  0  0  0
 22 23  2  0  0  0
 22 24  1  0  0  0
 22 25  1  0  0  0
 24 49  1  0  0  0
 25 26  1  0  0  0
 26 27  1  0  0  0
 26 35  1  0  0  0
 26 50  1  0  0  0
 27 28  1  0  0  0
 27 32  1  0  0  0
 27 51  1  0  0  0
 28 29  1  0  0  0
 28 33  1  0  0  0
 28 52  1  0  0  0
 29 30  1  0  0  0
 29 34  1  0  0  0
 29 53  1  0  0  0
 30 31  1  0  0  0
 30 35  1  0  0  0
 30 54  1  0  0  0
 31 36  1  0  0  0
 31 55  1  0  0  0
 31 56  1  0  0  0
 33 57  1  0  0  0
 34 58  1  0  0  0
 36 59  1  0  0  0
M  END
$$$$
