UPG
  CCTOOLS-1004241128

 60 62  0  0  1  0  0  0  0  0999 V2000
    4.8710   -1.1880    0.1650 N   0  0  0  0  0
    5.4340   -2.1950    0.8570 C   0  0  0  0  0
    5.6770   -3.3840    0.2740 N   0  0  0  0  0
    5.3580   -3.5830   -1.0210 C   0  0  0  0  0
    4.7660   -2.5320   -1.7600 C   0  0  0  0  0
    4.5330   -1.3500   -1.1510 C   0  0  0  0  0
    5.7260   -2.0300    2.0260 O   0  0  0  0  0
    5.5790   -4.6580   -1.5490 O   0  0  0  0  0
    4.6130    0.0930    0.8280 C   0  0  0  0  0
    5.4770    1.2160    0.2010 C   0  0  0  0  0
    6.7660    1.2710    0.8140 O   0  0  0  0  0
    4.6530    2.4840    0.5340 C   0  0  0  0  0
    3.2310    1.9510    0.7990 C   0  0  0  0  0
    3.2600    0.5300    0.5800 O   0  0  0  0  0
    5.1710    3.1260    1.7000 O   0  0  0  0  0
    2.2420    2.6060   -0.1670 C   0  0  0  0  0
    0.9130    2.1950    0.1610 O   0  0  0  0  0
   -0.3850    2.6930   -0.6510 P   0  0  0  0  0
   -0.2130    2.3890   -2.0900 O   0  0  0  0  0
   -0.5630    4.2810   -0.4560 O   0  0  0  0  0
   -1.6910    1.9340   -0.0950 O   0  0  0  0  0
   -3.1610    1.6560   -0.6890 P   0  0  0  0  0
   -3.0490    1.2100   -2.0950 O   0  0  0  0  0
   -4.0310    3.0090   -0.6230 O   0  0  0  0  0
   -3.8840    0.5110    0.1820 O   0  0  0  0  0
   -5.1610   -0.0340   -0.1560 C   0  0  0  0  0
   -5.8830   -0.4730    1.1200 C   0  0  0  0  0
   -5.0710   -1.5790    1.8030 C   0  0  0  0  0
   -4.8770   -2.7360    0.8180 C   0  0  0  0  0
   -4.1940   -2.2100   -0.4470 C   0  0  0  0  0
   -4.0510   -3.3480   -1.4600 C   0  0  0  0  0
   -6.0090    0.6420    2.0050 O   0  0  0  0  0
   -5.7740   -2.0450    2.9560 O   0  0  0  0  0
   -4.0600   -3.7420    1.4190 O   0  0  0  0  0
   -4.9850   -1.1640   -1.0140 O   0  0  0  0  0
   -3.3100   -2.8870   -2.5920 O   0  0  0  0  0
    6.0840   -4.0990    0.7870 H   0  0  0  0  0
    4.5040   -2.6730   -2.7990 H   0  0  0  0  0
    4.0810   -0.5360   -1.6990 H   0  0  0  0  0
    4.8040    0.0150    1.8990 H   0  0  0  0  0
    5.5670    1.0820   -0.8770 H   0  0  0  0  0
    7.3440    1.9590    0.4560 H   0  0  0  0  0
    4.6510    3.1710   -0.3120 H   0  0  0  0  0
    2.9420    2.1620    1.8280 H   0  0  0  0  0
    6.0850    3.4290    1.6090 H   0  0  0  0  0
    2.3170    3.6900   -0.0850 H   0  0  0  0  0
    2.4740    2.3020   -1.1880 H   0  0  0  0  0
   -0.6810    4.5540    0.4650 H   0  0  0  0  0
   -4.1460    3.3600    0.2710 H   0  0  0  0  0
   -5.7550    0.7220   -0.6680 H   0  0  0  0  0
   -6.8730   -0.8510    0.8670 H   0  0  0  0  0
   -4.0990   -1.1860    2.1010 H   0  0  0  0  0
   -5.8470   -3.1600    0.5580 H   0  0  0  0  0
   -3.2070   -1.8230   -0.1930 H   0  0  0  0  0
   -3.5240   -4.1820   -0.9970 H   0  0  0  0  0
   -5.0400   -3.6750   -1.7810 H   0  0  0  0  0
   -6.5080    1.3830    1.6360 H   0  0  0  0  0
   -5.9380   -1.3620    3.6200 H   0  0  0  0  0
   -4.4300   -4.1170    2.2300 H   0  0  0  0  0
   -3.1810   -3.5570   -3.2770 H   0  0  0  0  0
  1  2  1  0  0  0
  1  6  1  0  0  0
  1  9  1  0  0  0
  2  3  1  0  0  0
  2  7  2  0  0  0
  3  4  1  0  0  0
  3 37  1  0  0  0
  4  5  1  0  0  0
  4  8  2  0  0  0
  5  6  2  0  0  0
  5 38  1  0  0  0
  6 39  1  0  0  0
  9 10  1  0  0  0
  9 14  1  0  0  0
  9 40  1  0  0  0
 10 11  1  0  0  0
 10 12  1  0  0  0
 10 41  1  0  0  0
 11 42  1  0  0  0
 12 13  1  0  0  0
 12 15  1  0  0  0
 12 43  1  0  0  0
 13 14  1  0  0  0
 13 16  1  0  0  0
 13 44  1  0  0  0
 15 45  1  0  0  0
 16 17  1  0  0  0
 16 46  1  0  0  0
 16 47  1  0  0  0
 17 18  1  0  0  0
 18 19  2  0  0  0
 18 20  1  0  0  0
 18 21  1  0  0  0
 20 48  1  0  0  0
 21 22  1  0  0  0
 22 23  2  0  0  0
 22 24  1  0  0  0
 22 25  1  0  0  0
 24 49  1  0  0  0
 25 26  1  0  0  0
 26 27  1  0  0  0
 26 35  1  0  0  0
 26 50  1  0  0  0
 27 28  1  0  0  0
 27 32  1  0  0  0
 27 51  1  0  0  0
 28 29  1  0  0  0
 28 33  1  0  0  0
 28 52  1  0  0  0
 29 30  1  0  0  0
 29 34  1  0  0  0
 29 53  1  0  0  0
 30 31  1  0  0  0
 30 35  1  0  0  0
 30 54  1  0  0  0
 31 36  1  0  0  0
 31 55  1  0  0  0
 31 56  1  0  0  0
 32 57  1  0  0  0
 33 58  1  0  0  0
 34 59  1  0  0  0
 36 60  1  0  0  0
M  END
$$$$
