UQ
  CCTOOLS-0919241040

153153  0  0  0  0  0  0  0  0999 V2000
    0.8450   -7.4150   12.8820 C   0  0  0  0  0
    0.2230   -8.0230   14.0790 C   0  0  0  0  0
    0.9210   -8.8230   14.8870 C   0  0  0  0  0
    2.3430   -9.1300   14.6170 C   0  0  0  0  0
    2.9870   -8.5180   13.4150 C   0  0  0  0  0
    2.2790   -7.7230   12.5910 C   0  0  0  0  0
    4.4430   -8.8610   13.2490 C   0  0  0  0  0
    0.5100   -8.6050   17.1590 C   0  0  0  0  0
   -1.9800   -8.6540   13.7290 C   0  0  0  0  0
    2.8010   -7.0950   11.3420 C   0  0  0  0  0
    2.5110   -7.9280   10.1270 C   0  0  0  0  0
    3.3920   -8.4470    9.2490 C   0  0  0  0  0
    2.8950   -9.2340    8.0630 C   0  0  0  0  0
    4.8910   -8.2430    9.3040 C   0  0  0  0  0
    5.3910   -7.0230    8.5200 C   0  0  0  0  0
    6.8820   -6.8410    8.5870 C   0  0  0  0  0
    7.8150   -7.2370    7.6990 C   0  0  0  0  0
    9.2940   -7.0120    7.8460 C   0  0  0  0  0
    7.3990   -8.0230    6.4680 C   0  0  0  0  0
    7.1230   -7.1410    5.2470 C   0  0  0  0  0
    6.7920   -7.9840    4.0460 C   0  0  0  0  0
    5.6530   -7.9790    3.3250 C   0  0  0  0  0
    5.4070   -8.8610    2.1320 C   0  0  0  0  0
    4.5540   -6.9850    3.6480 C   0  0  0  0  0
    3.5290   -7.4580    4.6890 C   0  0  0  0  0
    2.4680   -6.4350    4.9900 C   0  0  0  0  0
    2.1870   -5.8860    6.1890 C   0  0  0  0  0
    2.8890   -6.2500    7.4690 C   0  0  0  0  0
    1.0520   -4.8880    6.3260 C   0  0  0  0  0
    1.4840   -3.4950    6.8020 C   0  0  0  0  0
    2.4840   -2.8560    5.8800 C   0  0  0  0  0
    3.7000   -2.3590    6.1800 C   0  0  0  0  0
    4.3350   -2.3800    7.5420 C   0  0  0  0  0
    4.5490   -1.7460    5.0850 C   0  0  0  0  0
    5.5010   -2.7590    4.4450 C   0  0  0  0  0
    6.3540   -2.1070    3.3940 C   0  0  0  0  0
    7.5860   -1.5870    3.5490 C   0  0  0  0  0
    8.2590   -1.6190    4.8960 C   0  0  0  0  0
    8.4110   -0.9950    2.4280 C   0  0  0  0  0
    8.2730    0.5260    2.2900 C   0  0  0  0  0
    6.8930    0.9610    1.8790 C   0  0  0  0  0
    6.0420    1.7800    2.5300 C   0  0  0  0  0
    4.6730    2.1610    2.0380 C   0  0  0  0  0
    6.4160    2.3160    3.9020 C   0  0  0  0  0
    6.5200    3.8440    4.0190 C   0  0  0  0  0
    7.5430    4.4510    3.0990 C   0  0  0  0  0
    7.3720    5.4370    2.1960 C   0  0  0  0  0
    8.5390    5.9060    1.3640 C   0  0  0  0  0
    6.0790    6.1910    1.9660 C   0  0  0  0  0
    5.9800    7.4600    2.8220 C   0  0  0  0  0
    4.6930    8.1850    2.5470 C   0  0  0  0  0
    4.5220    9.4390    2.0830 C   0  0  0  0  0
    3.1940   10.0950    1.8330 C   0  0  0  0  0
    5.7340   10.2930    1.7570 C   0  0  0  0  0
    6.2530   11.0960    2.9580 C   0  0  0  0  0
    7.4750   11.9070    2.6170 C   0  0  0  0  0
    8.7680   11.5490    2.7220 C   0  0  0  0  0
    9.9440   12.4120    2.3630 C   0  0  0  0  0
    9.1400   10.1890    3.2520 C   0  0  0  0  0
   -1.1030   -7.7380   14.3360 O   0  0  0  0  0
    0.3690   -9.4050   16.0110 O   0  0  0  0  0
    2.9670   -9.8760   15.3680 O   0  0  0  0  0
    0.1870   -6.6740   12.1550 O   0  0  0  0  0
    4.7960   -9.3630   14.1440 H   0  0  0  0  0
    5.0100   -7.9480   13.0900 H   0  0  0  0  0
    4.5610   -9.5140   12.3890 H   0  0  0  0  0
    0.5630   -9.2430   18.0440 H   0  0  0  0  0
   -0.3420   -7.9250   17.2370 H   0  0  0  0  0
    1.4320   -8.0240   17.0760 H   0  0  0  0  0
   -2.6300   -8.1270   13.0250 H   0  0  0  0  0
   -2.5810   -9.1480   14.4960 H   0  0  0  0  0
   -1.3950   -9.4030   13.1900 H   0  0  0  0  0
    3.8720   -6.9230   11.4770 H   0  0  0  0  0
    2.3220   -6.1180   11.2200 H   0  0  0  0  0
    1.4530   -8.1030    9.9390 H   0  0  0  0  0
    1.8040   -9.3020    8.0360 H   0  0  0  0  0
    3.2840  -10.2560    8.0840 H   0  0  0  0  0
    3.2170   -8.7600    7.1300 H   0  0  0  0  0
    5.1730   -8.1140   10.3580 H   0  0  0  0  0
    5.4350   -9.1360    8.9790 H   0  0  0  0  0
    5.0170   -7.0440    7.4930 H   0  0  0  0  0
    4.9400   -6.1270    8.9680 H   0  0  0  0  0
    7.2160   -6.2780    9.4580 H   0  0  0  0  0
    9.6700   -6.3990    7.0210 H   0  0  0  0  0
    9.5710   -6.5020    8.7710 H   0  0  0  0  0
    9.8240   -7.9700    7.8330 H   0  0  0  0  0
    6.5050   -8.6220    6.6860 H   0  0  0  0  0
    8.1900   -8.7490    6.2350 H   0  0  0  0  0
    8.0110   -6.5470    5.0000 H   0  0  0  0  0
    6.3300   -6.4230    5.4720 H   0  0  0  0  0
    7.5840   -8.6700    3.7510 H   0  0  0  0  0
    6.3250   -9.2800    1.7150 H   0  0  0  0  0
    4.9370   -8.2880    1.3250 H   0  0  0  0  0
    4.7420   -9.6880    2.4010 H   0  0  0  0  0
    4.0180   -6.7620    2.7150 H   0  0  0  0  0
    4.9790   -6.0270    3.9760 H   0  0  0  0  0
    3.0260   -8.3450    4.2850 H   0  0  0  0  0
    4.0560   -7.7780    5.5930 H   0  0  0  0  0
    1.8600   -6.1370    4.1370 H   0  0  0  0  0
    3.4330   -7.1960    7.4050 H   0  0  0  0  0
    2.1620   -6.3680    8.2800 H   0  0  0  0  0
    3.5980   -5.4680    7.7530 H   0  0  0  0  0
    0.3250   -5.2930    7.0420 H   0  0  0  0  0
    0.5050   -4.7900    5.3790 H   0  0  0  0  0
    1.8310   -3.5400    7.8380 H   0  0  0  0  0
    0.5970   -2.8490    6.8180 H   0  0  0  0  0
    2.1450   -2.7800    4.8470 H   0  0  0  0  0
    5.2910   -2.9120    7.5010 H   0  0  0  0  0
    3.7270   -2.8750    8.3020 H   0  0  0  0  0
    4.5230   -1.3610    7.8940 H   0  0  0  0  0
    3.8880   -1.3140    4.3250 H   0  0  0  0  0
    5.1330   -0.9060    5.4830 H   0  0  0  0  0
    6.1040   -3.2500    5.2150 H   0  0  0  0  0
    4.9320   -3.5600    3.9640 H   0  0  0  0  0
    5.9020   -2.0750    2.4040 H   0  0  0  0  0
    9.1960   -2.1820    4.8390 H   0  0  0  0  0
    7.6350   -2.0960    5.6590 H   0  0  0  0  0
    8.4820   -0.6060    5.2420 H   0  0  0  0  0
    8.1870   -1.4720    1.4670 H   0  0  0  0  0
    9.4660   -1.2340    2.6170 H   0  0  0  0  0
    8.9650    0.8600    1.5060 H   0  0  0  0  0
    8.6140    1.0150    3.2050 H   0  0  0  0  0
    6.5840    0.5760    0.9080 H   0  0  0  0  0
    4.3630    1.6270    1.1380 H   0  0  0  0  0
    3.9240    1.9460    2.8080 H   0  0  0  0  0
    4.6350    3.2300    1.8090 H   0  0  0  0  0
    5.6480    1.9740    4.6080 H   0  0  0  0  0
    7.3560    1.8680    4.2520 H   0  0  0  0  0
    5.5300    4.2890    3.9050 H   0  0  0  0  0
    6.8340    4.0770    5.0450 H   0  0  0  0  0
    8.5500    4.0530    3.2290 H   0  0  0  0  0
    8.3720    5.6870    0.3060 H   0  0  0  0  0
    9.4790    5.4270    1.6580 H   0  0  0  0  0
    8.6770    6.9870    1.4790 H   0  0  0  0  0
    5.2400    5.5220    2.1980 H   0  0  0  0  0
    5.9500    6.4550    0.9120 H   0  0  0  0  0
    5.9910    7.1920    3.8850 H   0  0  0  0  0
    6.8570    8.0880    2.6460 H   0  0  0  0  0
    3.8000    7.5900    2.7370 H   0  0  0  0  0
    3.0430   10.9350    2.5180 H   0  0  0  0  0
    3.1500   10.4770    0.8070 H   0  0  0  0  0
    2.3460    9.4190    1.9500 H   0  0  0  0  0
    5.4710   10.9860    0.9480 H   0  0  0  0  0
    6.5460    9.6720    1.3550 H   0  0  0  0  0
    5.4700   11.7980    3.2700 H   0  0  0  0  0
    6.4150   10.4390    3.8170 H   0  0  0  0  0
    7.2510   12.9050    2.2410 H   0  0  0  0  0
    9.6670   13.4110    2.0230 H   0  0  0  0  0
   10.5250   11.9410    1.5630 H   0  0  0  0  0
   10.5960   12.5360    3.2330 H   0  0  0  0  0
    9.7500   10.2890    4.1560 H   0  0  0  0  0
    9.7160    9.6350    2.5030 H   0  0  0  0  0
    8.2630    9.5860    3.5090 H   0  0  0  0  0
  1  2  1  0  0  0
  1  6  1  0  0  0
  1 63  2  0  0  0
  2  3  2  0  0  0
  2 60  1  0  0  0
  3  4  1  0  0  0
  3 61  1  0  0  0
  4  5  1  0  0  0
  4 62  2  0  0  0
  5  6  2  0  0  0
  5  7  1  0  0  0
  6 10  1  0  0  0
  7 64  1  0  0  0
  7 65  1  0  0  0
  7 66  1  0  0  0
  8 61  1  0  0  0
  8 67  1  0  0  0
  8 68  1  0  0  0
  8 69  1  0  0  0
  9 60  1  0  0  0
  9 70  1  0  0  0
  9 71  1  0  0  0
  9 72  1  0  0  0
 10 11  1  0  0  0
 10 73  1  0  0  0
 10 74  1  0  0  0
 11 12  2  0  0  0
 11 75  1  0  0  0
 12 13  1  0  0  0
 12 14  1  0  0  0
 13 76  1  0  0  0
 13 77  1  0  0  0
 13 78  1  0  0  0
 14 15  1  0  0  0
 14 79  1  0  0  0
 14 80  1  0  0  0
 15 16  1  0  0  0
 15 81  1  0  0  0
 15 82  1  0  0  0
 16 17  2  0  0  0
 16 83  1  0  0  0
 17 18  1  0  0  0
 17 19  1  0  0  0
 18 84  1  0  0  0
 18 85  1  0  0  0
 18 86  1  0  0  0
 19 20  1  0  0  0
 19 87  1  0  0  0
 19 88  1  0  0  0
 20 21  1  0  0  0
 20 89  1  0  0  0
 20 90  1  0  0  0
 21 22  2  0  0  0
 21 91  1  0  0  0
 22 23  1  0  0  0
 22 24  1  0  0  0
 23 92  1  0  0  0
 23 93  1  0  0  0
 23 94  1  0  0  0
 24 25  1  0  0  0
 24 95  1  0  0  0
 24 96  1  0  0  0
 25 26  1  0  0  0
 25 97  1  0  0  0
 25 98  1  0  0  0
 26 27  2  0  0  0
 26 99  1  0  0  0
 27 28  1  0  0  0
 27 29  1  0  0  0
 28100  1  0  0  0
 28101  1  0  0  0
 28102  1  0  0  0
 29 30  1  0  0  0
 29103  1  0  0  0
 29104  1  0  0  0
 30 31  1  0  0  0
 30105  1  0  0  0
 30106  1  0  0  0
 31 32  2  0  0  0
 31107  1  0  0  0
 32 33  1  0  0  0
 32 34  1  0  0  0
 33108  1  0  0  0
 33109  1  0  0  0
 33110  1  0  0  0
 34 35  1  0  0  0
 34111  1  0  0  0
 34112  1  0  0  0
 35 36  1  0  0  0
 35113  1  0  0  0
 35114  1  0  0  0
 36 37  2  0  0  0
 36115  1  0  0  0
 37 38  1  0  0  0
 37 39  1  0  0  0
 38116  1  0  0  0
 38117  1  0  0  0
 38118  1  0  0  0
 39 40  1  0  0  0
 39119  1  0  0  0
 39120  1  0  0  0
 40 41  1  0  0  0
 40121  1  0  0  0
 40122  1  0  0  0
 41 42  2  0  0  0
 41123  1  0  0  0
 42 43  1  0  0  0
 42 44  1  0  0  0
 43124  1  0  0  0
 43125  1  0  0  0
 43126  1  0  0  0
 44 45  1  0  0  0
 44127  1  0  0  0
 44128  1  0  0  0
 45 46  1  0  0  0
 45129  1  0  0  0
 45130  1  0  0  0
 46 47  2  0  0  0
 46131  1  0  0  0
 47 48  1  0  0  0
 47 49  1  0  0  0
 48132  1  0  0  0
 48133  1  0  0  0
 48134  1  0  0  0
 49 50  1  0  0  0
 49135  1  0  0  0
 49136  1  0  0  0
 50 51  1  0  0  0
 50137  1  0  0  0
 50138  1  0  0  0
 51 52  2  0  0  0
 51139  1  0  0  0
 52 53  1  0  0  0
 52 54  1  0  0  0
 53140  1  0  0  0
 53141  1  0  0  0
 53142  1  0  0  0
 54 55  1  0  0  0
 54143  1  0  0  0
 54144  1  0  0  0
 55 56  1  0  0  0
 55145  1  0  0  0
 55146  1  0  0  0
 56 57  2  0  0  0
 56147  1  0  0  0
 57 58  1  0  0  0
 57 59  1  0  0  0
 58148  1  0  0  0
 58149  1  0  0  0
 58150  1  0  0  0
 59151  1  0  0  0
 59152  1  0  0  0
 59153  1  0  0  0
M  END
$$$$
