URB
  CCTOOLS-0919241040

 12 12  0  0  0  0  0  0  0  0999 V2000
    0.0030   -2.0930    0.0020 O   0  0  0  0  0
   -0.5850   -1.0270    0.0010 C   0  0  0  0  0
    0.1400    0.1900    0.0010 C   0  0  0  0  0
    2.0310    0.1780   -0.0000 BR  0  0  0  0  0
   -0.5380    1.3580   -0.0000 C   0  0  0  0  0
   -1.9070    1.3470    0.0000 N   0  0  0  0  0
   -2.5830    0.1840    0.0010 C   0  0  0  0  0
   -3.7990    0.1980    0.0010 O   0  0  0  0  0
   -1.9330   -0.9940   -0.0040 N   0  0  0  0  0
   -0.0020    2.2960   -0.0000 H   0  0  0  0  0
   -2.3940    2.1860   -0.0000 H   0  0  0  0  0
   -2.4370   -1.8240   -0.0070 H   0  0  0  0  0
  1  2  2  0  0  0
  2  3  1  0  0  0
  2  9  1  0  0  0
  3  4  1  0  0  0
  3  5  2  0  0  0
  5  6  1  0  0  0
  5 10  1  0  0  0
  6  7  1  0  0  0
  6 11  1  0  0  0
  7  8  2  0  0  0
  7  9  1  0  0  0
  9 12  1  0  0  0
M  END
$$$$
