URF
  CCTOOLS-0919241040

 12 12  0  0  0  0  0  0  0  0999 V2000
    1.2440    0.0010    1.1260 N   0  0  0  0  0
   -0.0230   -0.0000    1.5760 C   0  0  0  0  0
   -1.0620   -0.0020    0.7200 N   0  0  0  0  0
   -0.8460    0.0020   -0.6100 C   0  0  0  0  0
    0.4830   -0.0010   -1.0990 C   0  0  0  0  0
    1.5070    0.0000   -0.2180 C   0  0  0  0  0
   -0.2340   -0.0000    2.7740 O   0  0  0  0  0
   -1.7860    0.0010   -1.3850 O   0  0  0  0  0
    0.7240   -0.0010   -2.4280 F   0  0  0  0  0
    1.9780    0.0020    1.7600 H   0  0  0  0  0
   -1.9700   -0.0030    1.0620 H   0  0  0  0  0
    2.5280    0.0010   -0.5710 H   0  0  0  0  0
  1  2  1  0  0  0
  1  6  1  0  0  0
  1 10  1  0  0  0
  2  3  1  0  0  0
  2  7  2  0  0  0
  3  4  1  0  0  0
  3 11  1  0  0  0
  4  5  1  0  0  0
  4  8  2  0  0  0
  5  6  2  0  0  0
  5  9  1  0  0  0
  6 12  1  0  0  0
M  END
$$$$
