UTP
  CCTOOLS-0919241040

 44 45  0  0  1  0  0  0  0  0999 V2000
   -1.4620    0.1320   -0.2650 P   0  0  0  0  0
   -2.0590    1.3900   -0.7660 O   0  0  0  0  0
   -1.1320   -0.8380   -1.5080 O   0  0  0  0  0
   -2.5010   -0.5990    0.7240 O   0  0  0  0  0
   -0.1040    0.4630    0.5330 O   0  0  0  0  0
   -3.9430   -0.5420    0.0090 P   0  0  0  0  0
   -4.0370   -1.7010   -1.1040 O   0  0  0  0  0
   -4.1210    0.7780   -0.6370 O   0  0  0  0  0
   -5.0970   -0.7600    1.1100 O   0  0  0  0  0
   -6.4820   -0.3020    0.4300 P   0  0  0  0  0
   -7.0300   -1.4810   -0.5200 O   0  0  0  0  0
   -6.2560    0.9170   -0.3780 O   0  0  0  0  0
   -7.5670    0.0090    1.5780 O   0  0  0  0  0
    0.7260    1.2110   -0.3580 C   0  0  0  0  0
    2.0410    1.5600    0.3430 C   0  0  0  0  0
    2.8080    0.3610    0.6010 O   0  0  0  0  0
    4.1680    0.8090    0.7860 C   0  0  0  0  0
    4.3720    1.9040   -0.2840 C   0  0  0  0  0
    5.1810    2.9650    0.2290 O   0  0  0  0  0
    2.9420    2.4100   -0.5800 C   0  0  0  0  0
    2.8240    3.7960   -0.2570 O   0  0  0  0  0
    5.1050   -0.2960    0.5690 N   0  0  0  0  0
    6.0700   -0.5600    1.5020 C   0  0  0  0  0
    5.0060   -1.0450   -0.5450 C   0  0  0  0  0
    4.1410   -0.7930   -1.3610 O   0  0  0  0  0
    5.8560   -2.0640   -0.7720 N   0  0  0  0  0
    6.8210   -2.3560    0.1240 C   0  0  0  0  0
    7.5880   -3.2800   -0.0780 O   0  0  0  0  0
    6.9340   -1.5790    1.3020 C   0  0  0  0  0
   -0.7460   -1.6440   -1.1390 H   0  0  0  0  0
   -3.9160   -2.5420   -0.6430 H   0  0  0  0  0
   -7.1640   -2.2550    0.0440 H   0  0  0  0  0
   -8.3800    0.2790    1.1300 H   0  0  0  0  0
    0.2150    2.1280   -0.6480 H   0  0  0  0  0
    0.9350    0.6150   -1.2460 H   0  0  0  0  0
    1.8450    2.0920    1.2740 H   0  0  0  0  0
    4.2990    1.2250    1.7850 H   0  0  0  0  0
    4.8210    1.4820   -1.1830 H   0  0  0  0  0
    5.2210    3.6430   -0.4590 H   0  0  0  0  0
    2.6860    2.2390   -1.6260 H   0  0  0  0  0
    3.4280    4.2730   -0.8420 H   0  0  0  0  0
    6.1410    0.0440    2.3950 H   0  0  0  0  0
    5.7730   -2.5910   -1.5810 H   0  0  0  0  0
    7.7000   -1.7980    2.0310 H   0  0  0  0  0
  1  2  2  0  0  0
  1  3  1  0  0  0
  1  4  1  0  0  0
  1  5  1  0  0  0
  3 30  1  0  0  0
  4  6  1  0  0  0
  5 14  1  0  0  0
  6  7  1  0  0  0
  6  8  2  0  0  0
  6  9  1  0  0  0
  7 31  1  0  0  0
  9 10  1  0  0  0
 10 11  1  0  0  0
 10 12  2  0  0  0
 10 13  1  0  0  0
 11 32  1  0  0  0
 13 33  1  0  0  0
 14 15  1  0  0  0
 14 34  1  0  0  0
 14 35  1  0  0  0
 15 16  1  0  0  0
 15 20  1  0  0  0
 15 36  1  0  0  0
 16 17  1  0  0  0
 17 18  1  0  0  0
 17 22  1  0  0  0
 17 37  1  0  0  0
 18 19  1  0  0  0
 18 20  1  0  0  0
 18 38  1  0  0  0
 19 39  1  0  0  0
 20 21  1  0  0  0
 20 40  1  0  0  0
 21 41  1  0  0  0
 22 23  1  0  0  0
 22 24  1  0  0  0
 23 29  2  0  0  0
 23 42  1  0  0  0
 24 25  2  0  0  0
 24 26  1  0  0  0
 26 27  1  0  0  0
 26 43  1  0  0  0
 27 28  2  0  0  0
 27 29  1  0  0  0
 29 44  1  0  0  0
M  END
$$$$
