V11
  CCTOOLS-0919241041

 51 54  0  0  1  0  0  0  0  0999 V2000
    4.0790   -1.9430   -0.2330 O   0  0  0  0  0
    3.6370   -0.8460    0.0450 C   0  0  0  0  0
    4.5090    0.3430   -0.0290 C   0  0  0  0  0
    4.0040    1.6050    0.2910 C   0  0  0  0  0
    4.8240    2.7110    0.2200 C   0  0  0  0  0
    6.1460    2.5730   -0.1670 C   0  0  0  0  0
    6.6530    1.3260   -0.4850 C   0  0  0  0  0
    5.8450    0.2100   -0.4130 C   0  0  0  0  0
    2.3480   -0.7150    0.4170 O   0  0  0  0  0
    1.5500   -1.9260    0.4670 C   0  0  0  0  0
    0.8970   -2.1630   -0.8970 C   0  0  0  0  0
   -0.1160   -1.0390   -1.1670 C   0  0  0  0  0
    0.5770    0.3070   -0.8500 C   0  0  0  0  0
    0.3120    0.5440    0.6510 C   0  0  0  0  0
   -0.5160   -0.6790    1.1050 C   0  0  0  0  0
    0.4670   -1.7780    1.5400 C   0  0  0  0  0
   -1.1830   -1.1510   -0.1370 N   0  0  0  0  0
   -2.3320   -0.2990   -0.4750 C   0  0  0  0  0
   -3.5020   -0.6290    0.4540 C   0  0  0  0  0
   -3.9170   -1.9790    0.2370 O   0  0  0  0  0
   -4.6510    0.3020    0.1650 C   0  0  0  0  0
   -5.5470    0.0020   -0.8440 C   0  0  0  0  0
   -6.6000    0.8570   -1.1090 C   0  0  0  0  0
   -6.7580    2.0110   -0.3660 C   0  0  0  0  0
   -5.8620    2.3120    0.6430 C   0  0  0  0  0
   -4.8120    1.4540    0.9130 C   0  0  0  0  0
    2.9730    1.7140    0.5920 H   0  0  0  0  0
    6.2440   -0.7630   -0.6570 H   0  0  0  0  0
    4.4350    3.6880    0.4670 H   0  0  0  0  0
    6.7840    3.4430   -0.2210 H   0  0  0  0  0
    7.6850    1.2250   -0.7870 H   0  0  0  0  0
    2.1910   -2.7730    0.7140 H   0  0  0  0  0
    1.6620   -2.1590   -1.6740 H   0  0  0  0  0
    0.3840   -3.1250   -0.8950 H   0  0  0  0  0
   -0.0670   -2.7220    1.6530 H   0  0  0  0  0
    0.9280   -1.5010    2.4880 H   0  0  0  0  0
   -0.5060   -1.0720   -2.1840 H   0  0  0  0  0
    1.6480    0.2360   -1.0400 H   0  0  0  0  0
    0.1380    1.1080   -1.4440 H   0  0  0  0  0
    1.2530    0.5900    1.1990 H   0  0  0  0  0
   -0.2560    1.4640    0.7950 H   0  0  0  0  0
   -1.2330   -0.4250    1.8870 H   0  0  0  0  0
   -2.0550    0.7480   -0.3530 H   0  0  0  0  0
   -2.6270   -0.4790   -1.5080 H   0  0  0  0  0
   -3.1880   -0.5070    1.4910 H   0  0  0  0  0
   -4.2100   -2.1600   -0.6660 H   0  0  0  0  0
   -5.4230   -0.9000   -1.4240 H   0  0  0  0  0
   -4.1140    1.6870    1.7040 H   0  0  0  0  0
   -7.3000    0.6220   -1.8980 H   0  0  0  0  0
   -7.5810    2.6790   -0.5740 H   0  0  0  0  0
   -5.9850    3.2140    1.2230 H   0  0  0  0  0
  2  9  1  0  0  0
  2  3  1  0  0  0
  2  1  2  0  0  0
  3  8  2  0  0  0
  3  4  1  0  0  0
  4 27  1  0  0  0
  5  4  2  0  0  0
  5 29  1  0  0  0
  6  5  1  0  0  0
  6 30  1  0  0  0
  7  6  2  0  0  0
  7 31  1  0  0  0
  8  7  1  0  0  0
  8 28  1  0  0  0
  9 10  1  0  0  0
 10 16  1  0  0  0
 10 11  1  0  0  0
 10 32  1  0  0  0
 11 33  1  0  0  0
 11 34  1  0  0  0
 12 11  1  0  0  0
 12 13  1  0  0  0
 12 37  1  0  0  0
 13 14  1  0  0  0
 13 38  1  0  0  0
 13 39  1  0  0  0
 14 40  1  0  0  0
 14 41  1  0  0  0
 15 14  1  0  0  0
 15 42  1  0  0  0
 16 15  1  0  0  0
 16 35  1  0  0  0
 16 36  1  0  0  0
 17 15  1  0  0  0
 17 12  1  0  0  0
 17 18  1  0  0  0
 18 19  1  0  0  0
 18 43  1  0  0  0
 18 44  1  0  0  0
 19 21  1  0  0  0
 19 45  1  0  0  0
 20 19  1  0  0  0
 20 46  1  0  0  0
 21 26  2  0  0  0
 21 22  1  0  0  0
 22 47  1  0  0  0
 23 22  2  0  0  0
 23 49  1  0  0  0
 24 23  1  0  0  0
 24 50  1  0  0  0
 25 24  2  0  0  0
 25 51  1  0  0  0
 26 25  1  0  0  0
 26 48  1  0  0  0
M  END
$$$$
