V37
  CCTOOLS-0919241042

 50 53  0  0  1  0  0  0  0  0999 V2000
    3.7800   -1.6920    1.0940 O   0  0  0  0  0
    3.4100   -0.8030    0.3530 C   0  0  0  0  0
    4.2680    0.3780    0.1310 C   0  0  0  0  0
    3.8460    1.4020   -0.7190 C   0  0  0  0  0
    4.6530    2.5030   -0.9210 C   0  0  0  0  0
    5.8780    2.5930   -0.2840 C   0  0  0  0  0
    6.3020    1.5830    0.5600 C   0  0  0  0  0
    5.5030    0.4790    0.7760 C   0  0  0  0  0
    2.2200   -0.8980   -0.2700 O   0  0  0  0  0
    1.4290   -2.0870   -0.0050 C   0  0  0  0  0
    0.5220   -1.8360    1.2020 C   0  0  0  0  0
   -0.5080   -0.7560    0.8360 C   0  0  0  0  0
    0.2510    0.4140    0.1680 C   0  0  0  0  0
    0.2850    0.0570   -1.3330 C   0  0  0  0  0
   -0.4580   -1.2950   -1.4360 C   0  0  0  0  0
    0.5760   -2.4150   -1.2340 C   0  0  0  0  0
   -1.3580   -1.3080   -0.2520 N   0  0  0  0  0
   -2.5380   -0.4630   -0.4790 C   0  0  0  0  0
   -3.5540   -0.6930    0.6410 C   0  0  0  0  0
   -4.7640    0.1740    0.4090 C   0  0  0  0  0
   -4.8110    1.4510    0.9360 C   0  0  0  0  0
   -5.9210    2.2470    0.7220 C   0  0  0  0  0
   -6.9850    1.7650   -0.0180 C   0  0  0  0  0
   -6.9380    0.4880   -0.5450 C   0  0  0  0  0
   -5.8250   -0.3050   -0.3370 C   0  0  0  0  0
    2.8910    1.3320   -1.2180 H   0  0  0  0  0
    5.8330   -0.3070    1.4390 H   0  0  0  0  0
    4.3280    3.2950   -1.5790 H   0  0  0  0  0
    6.5050    3.4570   -0.4460 H   0  0  0  0  0
    7.2590    1.6600    1.0550 H   0  0  0  0  0
    2.0940   -2.9240    0.2090 H   0  0  0  0  0
    0.0040   -2.7580    1.4680 H   0  0  0  0  0
    1.1230   -1.4990    2.0470 H   0  0  0  0  0
    1.2150   -2.4850   -2.1140 H   0  0  0  0  0
    0.0610   -3.3630   -1.0780 H   0  0  0  0  0
   -1.0880   -0.4310    1.7000 H   0  0  0  0  0
   -0.2830    1.3510    0.3230 H   0  0  0  0  0
    1.2640    0.4840    0.5630 H   0  0  0  0  0
   -0.2330    0.8190   -1.9160 H   0  0  0  0  0
    1.3140   -0.0460   -1.6760 H   0  0  0  0  0
   -1.0060   -1.3940   -2.3720 H   0  0  0  0  0
   -2.2380    0.5850   -0.4880 H   0  0  0  0  0
   -2.9900   -0.7190   -1.4380 H   0  0  0  0  0
   -3.8540   -1.7410    0.6500 H   0  0  0  0  0
   -3.1020   -0.4370    1.6000 H   0  0  0  0  0
   -3.9800    1.8270    1.5140 H   0  0  0  0  0
   -5.7860   -1.3010   -0.7520 H   0  0  0  0  0
   -5.9580    3.2440    1.1340 H   0  0  0  0  0
   -7.8520    2.3860   -0.1840 H   0  0  0  0  0
   -7.7690    0.1110   -1.1230 H   0  0  0  0  0
  2  9  1  0  0  0
  2  3  1  0  0  0
  2  1  2  0  0  0
  3  8  2  0  0  0
  3  4  1  0  0  0
  4 26  1  0  0  0
  5  4  2  0  0  0
  5 28  1  0  0  0
  6  5  1  0  0  0
  6 29  1  0  0  0
  7  6  2  0  0  0
  7 30  1  0  0  0
  8  7  1  0  0  0
  8 27  1  0  0  0
  9 10  1  0  0  0
 10 16  1  0  0  0
 10 11  1  0  0  0
 10 31  1  0  0  0
 11 32  1  0  0  0
 11 33  1  0  0  0
 12 11  1  0  0  0
 12 13  1  0  0  0
 12 36  1  0  0  0
 13 14  1  0  0  0
 13 37  1  0  0  0
 13 38  1  0  0  0
 14 39  1  0  0  0
 14 40  1  0  0  0
 15 14  1  0  0  0
 15 41  1  0  0  0
 16 15  1  0  0  0
 16 34  1  0  0  0
 16 35  1  0  0  0
 17 15  1  0  0  0
 17 12  1  0  0  0
 17 18  1  0  0  0
 18 19  1  0  0  0
 18 42  1  0  0  0
 18 43  1  0  0  0
 19 20  1  0  0  0
 19 44  1  0  0  0
 19 45  1  0  0  0
 20 25  2  0  0  0
 20 21  1  0  0  0
 21 46  1  0  0  0
 22 21  2  0  0  0
 22 48  1  0  0  0
 23 22  1  0  0  0
 23 49  1  0  0  0
 24 23  2  0  0  0
 24 50  1  0  0  0
 25 24  1  0  0  0
 25 47  1  0  0  0
M  END
$$$$
