V38
  CCTOOLS-0919241042

 55 58  0  0  1  0  0  0  0  0999 V2000
    2.6240    2.2920    0.2890 O   0  0  0  0  0
    2.9520    1.1230    0.3340 C   0  0  0  0  0
    4.3530    0.7390    0.0650 C   0  0  0  0  0
    4.7330   -0.6040    0.1160 C   0  0  0  0  0
    6.0430   -0.9560   -0.1360 C   0  0  0  0  0
    6.9780    0.0170   -0.4380 C   0  0  0  0  0
    6.6080    1.3490   -0.4900 C   0  0  0  0  0
    5.3010    1.7150   -0.2460 C   0  0  0  0  0
    2.0390    0.1790    0.6340 O   0  0  0  0  0
    0.6820    0.6290    0.8860 C   0  0  0  0  0
   -0.1010    0.6470   -0.4300 C   0  0  0  0  0
   -0.2560   -0.7960   -0.9360 C   0  0  0  0  0
    1.1300   -1.4770   -0.8560 C   0  0  0  0  0
    1.1960   -2.0730    0.5660 C   0  0  0  0  0
   -0.1560   -1.6990    1.2150 C   0  0  0  0  0
    0.0060   -0.3210    1.8780 C   0  0  0  0  0
   -1.0800   -1.5270    0.0630 N   0  3  0  0  0
   -1.4950   -2.8340   -0.4660 C   0  0  0  0  0
   -2.2500   -0.7290    0.4520 C   0  0  0  0  0
   -3.2340   -0.6610   -0.7180 C   0  0  0  0  0
   -2.5950   -0.0530   -1.8430 O   0  0  0  0  0
   -4.4340    0.1580   -0.3190 C   0  0  0  0  0
   -4.4040    1.5350   -0.4440 C   0  0  0  0  0
   -5.5040    2.2860   -0.0770 C   0  0  0  0  0
   -6.6350    1.6620    0.4150 C   0  0  0  0  0
   -6.6650    0.2850    0.5400 C   0  0  0  0  0
   -5.5670   -0.4670    0.1680 C   0  0  0  0  0
    4.0040   -1.3650    0.3530 H   0  0  0  0  0
    5.0120    2.7550   -0.2910 H   0  0  0  0  0
    6.3380   -1.9940   -0.0970 H   0  0  0  0  0
    8.0030   -0.2640   -0.6340 H   0  0  0  0  0
    7.3440    2.1040   -0.7260 H   0  0  0  0  0
    0.7060    1.6350    1.3060 H   0  0  0  0  0
   -1.0860    1.0830   -0.2620 H   0  0  0  0  0
    0.4390    1.2390   -1.1690 H   0  0  0  0  0
    0.6230   -0.4160    2.7710 H   0  0  0  0  0
   -0.9740    0.0710    2.1490 H   0  0  0  0  0
   -0.6770   -0.8360   -1.9400 H   0  0  0  0  0
    1.2080   -2.2670   -1.6020 H   0  0  0  0  0
    1.9220   -0.7410   -0.9960 H   0  0  0  0  0
    1.3070   -3.1560    0.5180 H   0  0  0  0  0
    2.0220   -1.6320    1.1240 H   0  0  0  0  0
   -0.5030   -2.4610    1.9130 H   0  0  0  0  0
   -2.0060   -3.3960    0.3160 H   0  0  0  0  0
   -2.1710   -2.6870   -1.3080 H   0  0  0  0  0
   -0.6170   -3.3870   -0.7970 H   0  0  0  0  0
   -2.7370   -1.1920    1.3100 H   0  0  0  0  0
   -1.9300    0.2790    0.7170 H   0  0  0  0  0
   -3.5530   -1.6690   -0.9830 H   0  0  0  0  0
   -2.2840    0.8480   -1.6790 H   0  0  0  0  0
   -3.5200    2.0230   -0.8280 H   0  0  0  0  0
   -5.5920   -1.5420    0.2610 H   0  0  0  0  0
   -5.4810    3.3620   -0.1750 H   0  0  0  0  0
   -7.4950    2.2490    0.7010 H   0  0  0  0  0
   -7.5490   -0.2030    0.9240 H   0  0  0  0  0
  2  9  1  0  0  0
  2  3  1  0  0  0
  2  1  2  0  0  0
  3  8  2  0  0  0
  3  4  1  0  0  0
  4 28  1  0  0  0
  5  4  2  0  0  0
  5 30  1  0  0  0
  6  5  1  0  0  0
  6 31  1  0  0  0
  7  6  2  0  0  0
  7 32  1  0  0  0
  8  7  1  0  0  0
  8 29  1  0  0  0
  9 10  1  0  0  0
 10 16  1  0  0  0
 10 11  1  0  0  0
 10 33  1  0  0  0
 11 34  1  0  0  0
 11 35  1  0  0  0
 12 11  1  0  0  0
 12 13  1  0  0  0
 12 38  1  0  0  0
 13 14  1  0  0  0
 13 39  1  0  0  0
 13 40  1  0  0  0
 14 41  1  0  0  0
 14 42  1  0  0  0
 15 14  1  0  0  0
 15 43  1  0  0  0
 16 15  1  0  0  0
 16 36  1  0  0  0
 16 37  1  0  0  0
 17 15  1  0  0  0
 17 12  1  0  0  0
 17 19  1  0  0  0
 17 18  1  0  0  0
 18 44  1  0  0  0
 18 45  1  0  0  0
 18 46  1  0  0  0
 19 20  1  0  0  0
 19 47  1  0  0  0
 19 48  1  0  0  0
 20 22  1  0  0  0
 20 49  1  0  0  0
 21 20  1  0  0  0
 21 50  1  0  0  0
 22 27  2  0  0  0
 22 23  1  0  0  0
 23 51  1  0  0  0
 24 23  2  0  0  0
 24 53  1  0  0  0
 25 24  1  0  0  0
 25 54  1  0  0  0
 26 25  2  0  0  0
 26 55  1  0  0  0
 27 26  1  0  0  0
 27 52  1  0  0  0
M  CHG  1  17   1
M  END
$$$$
