V63
  CCTOOLS-0919241042

 34 36  0  0  1  0  0  0  0  0999 V2000
    3.2110    1.0070   -0.1880 C   0  0  0  0  0
    3.2730   -1.7440    0.1670 C   0  0  0  0  0
    2.0690   -1.0750    0.2500 C   0  0  0  0  0
   -1.5330   -1.1580   -1.0680 C   0  0  0  0  0
    0.7450    1.0330    0.1620 C   0  0  0  0  0
   -2.5940    0.4520    1.4520 C   0  0  0  0  0
    4.4410   -1.0450   -0.0810 C   0  0  0  0  0
   -2.2450    1.2240   -0.9070 C   0  0  0  0  0
   -2.6970   -0.1790   -1.3430 C   0  0  0  0  0
    4.4080    0.3260   -0.2630 C   0  0  0  0  0
   -1.7460   -1.6330    0.3840 C   0  0  0  0  0
   -3.0220   -0.8990    0.8570 C   0  0  0  0  0
    2.0300    0.3090    0.0730 C   0  0  0  0  0
   -1.6180    1.1320    0.4870 C   0  0  0  0  0
    0.7140    2.2370    0.0070 O   0  0  0  0  0
   -3.7660   -0.6090   -0.4020 N   0  0  0  0  0
   -0.3930    0.3560    0.4140 O   0  0  0  0  0
    1.1580   -1.6220    0.4440 H   0  0  0  0  0
    3.3050   -2.8150    0.3040 H   0  0  0  0  0
    5.3220    0.8650   -0.4650 H   0  0  0  0  0
    3.1880    2.0780   -0.3260 H   0  0  0  0  0
    5.3800   -1.5740   -0.1450 H   0  0  0  0  0
   -3.6010   -1.4930    1.5640 H   0  0  0  0  0
   -3.4710    1.0850    1.5890 H   0  0  0  0  0
   -2.1050    0.2920    2.4130 H   0  0  0  0  0
   -1.8960   -2.7120    0.4120 H   0  0  0  0  0
   -0.8940   -1.3530    1.0040 H   0  0  0  0  0
   -4.2360   -1.4350   -0.7420 H   0  0  0  0  0
   -3.0180   -0.2020   -2.3840 H   0  0  0  0  0
   -1.5090    1.6070   -1.6140 H   0  0  0  0  0
   -3.1050    1.8930   -0.8770 H   0  0  0  0  0
   -1.5780   -2.0040   -1.7540 H   0  0  0  0  0
   -0.5760   -0.6450   -1.1630 H   0  0  0  0  0
   -1.3900    2.1350    0.8480 H   0  0  0  0  0
  1 13  2  0  0  0
  1 21  1  0  0  0
  2 19  1  0  0  0
  3  2  2  0  0  0
  3 13  1  0  0  0
  3 18  1  0  0  0
  4 32  1  0  0  0
  4 33  1  0  0  0
  5 13  1  0  0  0
  5 15  2  0  0  0
  5 17  1  0  0  0
  6 14  1  0  0  0
  6 24  1  0  0  0
  6 25  1  0  0  0
  7  2  1  0  0  0
  7 22  1  0  0  0
  8 14  1  0  0  0
  8 30  1  0  0  0
  8 31  1  0  0  0
  9  8  1  0  0  0
  9  4  1  0  0  0
  9 16  1  0  0  0
  9 29  1  0  0  0
 10  1  1  0  0  0
 10  7  2  0  0  0
 10 20  1  0  0  0
 11  4  1  0  0  0
 11 26  1  0  0  0
 11 27  1  0  0  0
 12  6  1  0  0  0
 12 11  1  0  0  0
 12 16  1  0  0  0
 12 23  1  0  0  0
 14 17  1  0  0  0
 14 34  1  0  0  0
 16 28  1  0  0  0
M  END
$$$$
