VJP
  CCTOOLS-0919241044

 31 32  0  0  0  0  0  0  0  0999 V2000
   -3.6420   -0.7900   -0.0310 C   0  0  0  0  0
   -4.8800   -1.4360   -0.0170 N   0  0  0  0  0
    0.4310    2.0330   -1.2980 O   0  0  0  0  0
    0.3730    1.3040   -0.0790 S   0  0  0  0  0
   -2.9800   -0.5270    1.1610 C   0  0  0  0  0
    1.5370    0.1300   -0.1820 N   0  0  0  0  0
    0.5250    1.9100    1.1970 O   0  0  0  0  0
   -1.7550    0.1110    1.1430 C   0  0  0  0  0
    1.5630    0.0350    2.0020 O   0  0  0  0  0
   -1.1890    0.4890   -0.0610 C   0  0  0  0  0
   -1.8460    0.2300   -1.2500 C   0  0  0  0  0
   -3.0680   -0.4130   -1.2390 C   0  0  0  0  0
    1.9690   -0.2900   -1.5090 C   0  0  0  0  0
    3.3240   -0.9950   -1.4330 C   0  0  0  0  0
    3.2520   -2.0830   -0.3550 C   0  0  0  0  0
    3.1100   -1.4030    1.0090 C   0  0  0  0  0
    2.0240   -0.3670    0.9560 C   0  0  0  0  0
   -5.2790   -1.7020    0.8270 H   0  0  0  0  0
   -5.3420   -1.6190   -0.8500 H   0  0  0  0  0
   -3.4220   -0.8220    2.1010 H   0  0  0  0  0
   -1.2400    0.3160    2.0690 H   0  0  0  0  0
   -1.4010    0.5270   -2.1880 H   0  0  0  0  0
   -3.5790   -0.6190   -2.1680 H   0  0  0  0  0
    1.2300   -0.9740   -1.9280 H   0  0  0  0  0
    2.0520    0.5840   -2.1540 H   0  0  0  0  0
    3.5540   -1.4490   -2.3970 H   0  0  0  0  0
    4.0970   -0.2720   -1.1730 H   0  0  0  0  0
    2.3900   -2.7240   -0.5370 H   0  0  0  0  0
    4.1640   -2.6790   -0.3750 H   0  0  0  0  0
    2.8640   -2.1510    1.7630 H   0  0  0  0  0
    4.0520   -0.9220    1.2740 H   0  0  0  0  0
  1  2  1  0  0  0
  1  5  2  0  0  0
  1 12  1  0  0  0
  2 18  1  0  0  0
  2 19  1  0  0  0
  3  4  2  0  0  0
  4  6  1  0  0  0
  4  7  2  0  0  0
  4 10  1  0  0  0
  5  8  1  0  0  0
  5 20  1  0  0  0
  6 13  1  0  0  0
  6 17  1  0  0  0
  8 10  2  0  0  0
  8 21  1  0  0  0
  9 17  2  0  0  0
 10 11  1  0  0  0
 11 12  2  0  0  0
 11 22  1  0  0  0
 12 23  1  0  0  0
 13 14  1  0  0  0
 13 24  1  0  0  0
 13 25  1  0  0  0
 14 15  1  0  0  0
 14 26  1  0  0  0
 14 27  1  0  0  0
 15 16  1  0  0  0
 15 28  1  0  0  0
 15 29  1  0  0  0
 16 17  1  0  0  0
 16 30  1  0  0  0
 16 31  1  0  0  0
M  END
$$$$
