VLB
  CCTOOLS-0919241044

117125  0  0  1  0  0  0  0  0999 V2000
    5.3200    3.3750    3.0930 C   0  0  0  0  0
    4.2530    3.2080    2.0090 C   0  0  0  0  0
    4.9160    3.2540    0.6300 C   0  0  0  0  0
    5.5670    4.5270    0.4950 O   0  0  0  0  0
    5.9660    2.1570    0.5280 C   0  0  0  0  0
    3.8180    3.1760   -0.4560 C   0  0  0  0  0
    3.4910    1.7400   -0.6170 C   0  0  0  0  0
    2.4540    1.2140   -1.6240 C   0  0  0  0  0
    4.7560    0.9870   -1.0560 C   0  0  0  0  0
    5.4700    0.8130    0.2270 N   0  0  0  0  0
    6.6280    0.0410   -0.3630 C   0  0  0  0  0
    5.7420   -1.2030   -0.8150 C   0  0  0  0  0
    4.4900   -1.1600    0.0580 C   0  0  0  0  0
    4.5510   -1.6600    1.4350 C   0  0  0  0  0
    5.5900   -2.2370    2.1700 C   0  0  0  0  0
    5.2900   -2.6300    3.4530 C   0  0  0  0  0
    4.0260   -2.4670    3.9960 C   0  0  0  0  0
    2.9880   -1.8820    3.2900 C   0  0  0  0  0
    3.2730   -1.4590    1.9930 C   0  0  0  0  0
    2.5350   -0.8270    1.0460 N   0  0  0  0  0
    3.2250   -0.7590   -0.1660 C   0  0  0  0  0
    2.4430   -0.3390   -1.3920 C   0  0  0  0  0
    2.8620   -1.0900   -2.6320 C   0  0  0  0  0
    3.1920   -0.4840   -3.6240 O   0  0  0  0  0
    2.8690   -2.4320   -2.6330 O   0  0  0  0  0
    3.2730   -3.1560   -3.8260 C   0  0  0  0  0
    1.0040   -0.7290   -1.1710 C   0  0  0  0  0
   -0.0020    0.1780   -1.4800 C   0  0  0  0  0
   -1.3040   -0.2270   -1.2600 C   0  0  0  0  0
   -2.5950    0.5000   -1.5240 C   0  0  0  0  0
   -2.7270    1.7880   -0.7500 C   0  0  0  0  0
   -2.5980    0.9440   -3.0040 C   0  0  0  0  0
   -2.1150    2.4130   -2.9300 C   0  0  0  0  0
   -2.6980    2.9240   -1.6580 N   0  0  0  0  0
   -4.0740    3.2840   -2.0060 C   0  0  0  0  0
   -4.8840    3.5690   -0.7760 C   0  0  0  0  0
   -4.6640    2.9340    0.3360 C   0  0  0  0  0
   -3.5850    1.8980    0.4560 C   0  0  0  0  0
   -2.6820    2.3180    1.6180 C   0  0  0  0  0
   -3.5220    2.4660    2.8890 C   0  0  0  0  0
   -4.2200    0.5600    0.8420 C   0  0  0  0  0
   -5.2680    0.7760    1.8240 O   0  0  0  0  0
   -5.5690   -0.1880    2.7080 C   0  0  0  0  0
   -6.6560    0.0370    3.7270 C   0  0  0  0  0
   -4.9670   -1.2350    2.6880 O   0  0  0  0  0
   -4.8170   -0.0580   -0.4260 C   0  0  0  0  0
   -5.7110   -1.2140   -0.0590 C   0  0  0  0  0
   -6.8830   -1.1890   -0.3550 O   0  0  0  0  0
   -5.2070   -2.2710    0.5970 O   0  0  0  0  0
   -6.0690   -3.3840    0.9500 C   0  0  0  0  0
   -5.5730    0.9300   -1.1300 O   0  0  0  0  0
   -3.6750   -0.5530   -1.3080 C   0  0  0  0  0
   -2.9800   -1.6380   -0.5660 N   0  0  0  0  0
   -3.3480   -2.9000   -1.2200 C   0  0  0  0  0
   -1.6130   -1.4860   -0.7340 C   0  0  0  0  0
   -0.5960   -2.3940   -0.4320 C   0  0  0  0  0
    0.7120   -1.9860   -0.6680 C   0  0  0  0  0
    1.7320   -2.8390   -0.3890 O   0  0  0  0  0
    1.1410   -4.0370    0.1190 C   0  0  0  0  0
    5.8230    4.3330    2.9640 H   0  0  0  0  0
    4.8480    3.3420    4.0750 H   0  0  0  0  0
    6.0480    2.5680    3.0130 H   0  0  0  0  0
    3.7500    2.2500    2.1380 H   0  0  0  0  0
    3.5240    4.0150    2.0890 H   0  0  0  0  0
    6.2210    4.5820    1.2050 H   0  0  0  0  0
    6.6890    2.4260   -0.2570 H   0  0  0  0  0
    6.5280    2.1020    1.4710 H   0  0  0  0  0
    2.9520    3.7550   -0.1220 H   0  0  0  0  0
    4.2000    3.6170   -1.3800 H   0  0  0  0  0
    3.1660    1.3520    0.3870 H   0  0  0  0  0
    1.4660    1.6420   -1.4180 H   0  0  0  0  0
    2.7480    1.4550   -2.6500 H   0  0  0  0  0
    4.6080    0.1360   -1.6770 H   0  0  0  0  0
    5.3740    1.6760   -1.7100 H   0  0  0  0  0
    7.0410    0.5580   -1.2090 H   0  0  0  0  0
    7.3280   -0.2340    0.4050 H   0  0  0  0  0
    5.5320   -1.1750   -1.8630 H   0  0  0  0  0
    6.3000   -2.1160   -0.5720 H   0  0  0  0  0
    6.5780   -2.3660    1.7560 H   0  0  0  0  0
    6.0640   -3.0770    4.0570 H   0  0  0  0  0
    3.8430   -2.8090    5.0040 H   0  0  0  0  0
    2.0050   -1.7640    3.7210 H   0  0  0  0  0
    1.6540   -0.4630    1.2120 H   0  0  0  0  0
    3.2150   -4.2280   -3.6380 H   0  0  0  0  0
    2.6090   -2.8950   -4.6510 H   0  0  0  0  0
    4.2970   -2.8870   -4.0850 H   0  0  0  0  0
    0.2240    1.1570   -1.8760 H   0  0  0  0  0
   -1.7360    1.8750   -0.3040 H   0  0  0  0  0
   -3.6030    0.8890   -3.4220 H   0  0  0  0  0
   -1.9030    0.3380   -3.5850 H   0  0  0  0  0
   -2.4930    2.9830   -3.7790 H   0  0  0  0  0
   -1.0260    2.4550   -2.8960 H   0  0  0  0  0
   -4.5320    2.4600   -2.5540 H   0  0  0  0  0
   -4.0620    4.1710   -2.6400 H   0  0  0  0  0
   -5.6640    4.3150   -0.8160 H   0  0  0  0  0
   -5.2750    3.1580    1.1990 H   0  0  0  0  0
   -1.9150    1.5600    1.7750 H   0  0  0  0  0
   -2.2080    3.2710    1.3830 H   0  0  0  0  0
   -3.9960    1.5130    3.1240 H   0  0  0  0  0
   -2.8790    2.7660    3.7160 H   0  0  0  0  0
   -4.2890    3.2250    2.7310 H   0  0  0  0  0
   -3.4610   -0.1050    1.2540 H   0  0  0  0  0
   -7.6110   -0.2930    3.3180 H   0  0  0  0  0
   -6.4320   -0.5310    4.6300 H   0  0  0  0  0
   -6.7130    1.0980    3.9700 H   0  0  0  0  0
   -5.4860   -4.1420    1.4740 H   0  0  0  0  0
   -6.8710   -3.0310    1.5980 H   0  0  0  0  0
   -6.4950   -3.8150    0.0450 H   0  0  0  0  0
   -6.2820    1.2140   -0.5380 H   0  0  0  0  0
   -4.0550   -0.9180   -2.2620 H   0  0  0  0  0
   -2.8470   -3.7290   -0.7210 H   0  0  0  0  0
   -4.4280   -3.0390   -1.1600 H   0  0  0  0  0
   -3.0440   -2.8690   -2.2670 H   0  0  0  0  0
   -0.8160   -3.3740   -0.0360 H   0  0  0  0  0
    0.4770   -4.4610   -0.6340 H   0  0  0  0  0
    1.9240   -4.7560    0.3580 H   0  0  0  0  0
    0.5700   -3.8080    1.0190 H   0  0  0  0  0
  1  2  1  0  0  0
  1 60  1  0  0  0
  1 61  1  0  0  0
  1 62  1  0  0  0
  2  3  1  0  0  0
  2 63  1  0  0  0
  2 64  1  0  0  0
  3  4  1  0  0  0
  3  5  1  0  0  0
  3  6  1  0  0  0
  4 65  1  0  0  0
  5 10  1  0  0  0
  5 66  1  0  0  0
  5 67  1  0  0  0
  6  7  1  0  0  0
  6 68  1  0  0  0
  6 69  1  0  0  0
  7  8  1  0  0  0
  7  9  1  0  0  0
  7 70  1  0  0  0
  8 22  1  0  0  0
  8 71  1  0  0  0
  8 72  1  0  0  0
  9 10  1  0  0  0
  9 73  1  0  0  0
  9 74  1  0  0  0
 10 11  1  0  0  0
 11 12  1  0  0  0
 11 75  1  0  0  0
 11 76  1  0  0  0
 12 13  1  0  0  0
 12 77  1  0  0  0
 12 78  1  0  0  0
 13 14  1  0  0  0
 13 21  2  0  0  0
 14 15  2  0  0  0
 14 19  1  0  0  0
 15 16  1  0  0  0
 15 79  1  0  0  0
 16 17  2  0  0  0
 16 80  1  0  0  0
 17 18  1  0  0  0
 17 81  1  0  0  0
 18 19  2  0  0  0
 18 82  1  0  0  0
 19 20  1  0  0  0
 20 21  1  0  0  0
 20 83  1  0  0  0
 21 22  1  0  0  0
 22 23  1  0  0  0
 22 27  1  0  0  0
 23 24  2  0  0  0
 23 25  1  0  0  0
 25 26  1  0  0  0
 26 84  1  0  0  0
 26 85  1  0  0  0
 26 86  1  0  0  0
 27 28  2  0  0  0
 27 57  1  0  0  0
 28 29  1  0  0  0
 28 87  1  0  0  0
 29 30  1  0  0  0
 29 55  2  0  0  0
 30 31  1  0  0  0
 30 32  1  0  0  0
 30 52  1  0  0  0
 31 34  1  0  0  0
 31 38  1  0  0  0
 31 88  1  0  0  0
 32 33  1  0  0  0
 32 89  1  0  0  0
 32 90  1  0  0  0
 33 34  1  0  0  0
 33 91  1  0  0  0
 33 92  1  0  0  0
 34 35  1  0  0  0
 35 36  1  0  0  0
 35 93  1  0  0  0
 35 94  1  0  0  0
 36 37  2  0  0  0
 36 95  1  0  0  0
 37 38  1  0  0  0
 37 96  1  0  0  0
 38 39  1  0  0  0
 38 41  1  0  0  0
 39 40  1  0  0  0
 39 97  1  0  0  0
 39 98  1  0  0  0
 40 99  1  0  0  0
 40100  1  0  0  0
 40101  1  0  0  0
 41 42  1  0  0  0
 41 46  1  0  0  0
 41102  1  0  0  0
 42 43  1  0  0  0
 43 44  1  0  0  0
 43 45  2  0  0  0
 44103  1  0  0  0
 44104  1  0  0  0
 44105  1  0  0  0
 46 47  1  0  0  0
 46 51  1  0  0  0
 46 52  1  0  0  0
 47 48  2  0  0  0
 47 49  1  0  0  0
 49 50  1  0  0  0
 50106  1  0  0  0
 50107  1  0  0  0
 50108  1  0  0  0
 51109  1  0  0  0
 52 53  1  0  0  0
 52110  1  0  0  0
 53 54  1  0  0  0
 53 55  1  0  0  0
 54111  1  0  0  0
 54112  1  0  0  0
 54113  1  0  0  0
 55 56  1  0  0  0
 56 57  2  0  0  0
 56114  1  0  0  0
 57 58  1  0  0  0
 58 59  1  0  0  0
 59115  1  0  0  0
 59116  1  0  0  0
 59117  1  0  0  0
M  END
$$$$
