VO1
  CCTOOLS-0919241027

 36 38  0  0  0  0  0  0  0  0999 V2000
    2.4270   -0.7160    0.0030 C   0  0  0  0  0
    2.8120   -1.9540   -0.0010 N   0  0  0  0  0
    4.1150   -2.1740    0.0000 C   0  0  0  0  0
    4.8640   -1.0710    0.0060 C   0  0  0  0  0
    3.7850    0.3220    0.0020 S   0  0  0  0  0
    4.7070   -3.5600   -0.0040 C   0  0  0  0  0
    1.1050   -0.2950    0.0020 N   0  0  0  0  0
    0.8070    1.0660    0.0010 C   0  0  0  0  0
    1.7900    1.9530   -0.0050 N   0  0  0  0  0
    1.5510    3.2510   -0.0060 C   0  0  0  0  0
    0.2590    3.7360   -0.0020 C   0  0  0  0  0
   -0.8030    2.8420    0.0040 C   0  0  0  0  0
   -0.5240    1.4840   -0.0000 C   0  0  0  0  0
   -1.5330    0.5720   -0.0000 O   0  0  0  0  0
   -2.8680    1.0810   -0.0010 C   0  0  0  0  0
   -3.8440   -0.0670   -0.0010 C   0  0  0  0  0
   -4.2870   -0.5990   -1.1970 C   0  0  0  0  0
   -5.1820   -1.6520   -1.1970 C   0  0  0  0  0
   -5.6340   -2.1740    0.0010 C   0  0  0  0  0
   -5.1910   -1.6430    1.1970 C   0  0  0  0  0
   -4.2920   -0.5930    1.1970 C   0  0  0  0  0
    5.9430   -1.0370    0.0080 H   0  0  0  0  0
    4.8510   -3.8900   -1.0320 H   0  0  0  0  0
    5.6670   -3.5460    0.5120 H   0  0  0  0  0
    4.0300   -4.2460    0.5060 H   0  0  0  0  0
    0.3880   -0.9480    0.0020 H   0  0  0  0  0
    2.3800    3.9440   -0.0110 H   0  0  0  0  0
    0.0760    4.8000   -0.0030 H   0  0  0  0  0
   -1.8240    3.1970    0.0070 H   0  0  0  0  0
   -3.0250    1.6920    0.8880 H   0  0  0  0  0
   -3.0240    1.6900   -0.8920 H   0  0  0  0  0
   -3.9330   -0.1910   -2.1330 H   0  0  0  0  0
   -5.5280   -2.0670   -2.1320 H   0  0  0  0  0
   -6.3340   -2.9970    0.0010 H   0  0  0  0  0
   -5.5440   -2.0510    2.1330 H   0  0  0  0  0
   -3.9430   -0.1800    2.1320 H   0  0  0  0  0
  1  7  1  0  0  0
  1  5  1  0  0  0
  2  1  2  0  0  0
  3  2  1  0  0  0
  3  4  2  0  0  0
  4  5  1  0  0  0
  4 22  1  0  0  0
  6  3  1  0  0  0
  6 23  1  0  0  0
  6 24  1  0  0  0
  6 25  1  0  0  0
  7  8  1  0  0  0
  7 26  1  0  0  0
  8 13  2  0  0  0
  8  9  1  0  0  0
  9 10  2  0  0  0
 10 11  1  0  0  0
 10 27  1  0  0  0
 11 28  1  0  0  0
 12 11  2  0  0  0
 12 29  1  0  0  0
 13 12  1  0  0  0
 14 15  1  0  0  0
 14 13  1  0  0  0
 15 16  1  0  0  0
 15 30  1  0  0  0
 15 31  1  0  0  0
 16 21  2  0  0  0
 17 18  2  0  0  0
 17 16  1  0  0  0
 17 32  1  0  0  0
 18 19  1  0  0  0
 18 33  1  0  0  0
 19 20  2  0  0  0
 19 34  1  0  0  0
 20 35  1  0  0  0
 21 20  1  0  0  0
 21 36  1  0  0  0
M  END
$$$$
