VO2
  CCTOOLS-0919241027

 39 41  0  0  0  0  0  0  0  0999 V2000
    2.4280   -0.9550    0.0030 C   0  0  0  0  0
    2.8140   -2.1930   -0.0010 N   0  0  0  0  0
    4.1160   -2.4120    0.0000 C   0  0  0  0  0
    4.8650   -1.3090    0.0060 C   0  0  0  0  0
    3.7860    0.0840    0.0030 S   0  0  0  0  0
    4.7090   -3.7980   -0.0040 C   0  0  0  0  0
    1.1060   -0.5350    0.0020 N   0  0  0  0  0
    0.8080    0.8270    0.0010 C   0  0  0  0  0
    1.7900    1.7140   -0.0040 N   0  0  0  0  0
    1.5510    3.0120   -0.0060 C   0  0  0  0  0
    0.2580    3.4960   -0.0010 C   0  0  0  0  0
   -0.8040    2.6020    0.0040 C   0  0  0  0  0
   -0.5240    1.2430   -0.0000 C   0  0  0  0  0
   -1.5330    0.3310    0.0000 O   0  0  0  0  0
   -2.8680    0.8400   -0.0010 C   0  0  0  0  0
   -3.8430   -0.3090   -0.0010 C   0  0  0  0  0
   -4.2860   -0.8400   -1.1970 C   0  0  0  0  0
   -5.1810   -1.8940   -1.1970 C   0  0  0  0  0
   -5.6330   -2.4160    0.0000 C   0  0  0  0  0
   -5.1900   -1.8850    1.1970 C   0  0  0  0  0
   -4.2910   -0.8350    1.1970 C   0  0  0  0  0
    0.0020    4.9810   -0.0020 C   0  0  0  0  0
    5.9440   -1.2750    0.0080 H   0  0  0  0  0
    4.8540   -4.1280   -1.0330 H   0  0  0  0  0
    5.6690   -3.7840    0.5120 H   0  0  0  0  0
    4.0320   -4.4840    0.5060 H   0  0  0  0  0
    0.3890   -1.1880    0.0020 H   0  0  0  0  0
    2.3790    3.7050   -0.0100 H   0  0  0  0  0
   -1.8240    2.9560    0.0080 H   0  0  0  0  0
   -3.0250    1.4500    0.8880 H   0  0  0  0  0
   -3.0240    1.4490   -0.8920 H   0  0  0  0  0
   -3.9320   -0.4330   -2.1330 H   0  0  0  0  0
   -5.5270   -2.3090   -2.1320 H   0  0  0  0  0
   -6.3330   -3.2390    0.0010 H   0  0  0  0  0
   -5.5440   -2.2930    2.1330 H   0  0  0  0  0
   -3.9420   -0.4220    2.1320 H   0  0  0  0  0
   -0.0630    5.3380   -1.0300 H   0  0  0  0  0
   -0.9340    5.1890    0.5150 H   0  0  0  0  0
    0.8200    5.4910    0.5080 H   0  0  0  0  0
  1  7  1  0  0  0
  1  5  1  0  0  0
  2  1  2  0  0  0
  3  2  1  0  0  0
  3  4  2  0  0  0
  4  5  1  0  0  0
  4 23  1  0  0  0
  6  3  1  0  0  0
  6 24  1  0  0  0
  6 25  1  0  0  0
  6 26  1  0  0  0
  7  8  1  0  0  0
  7 27  1  0  0  0
  8 13  2  0  0  0
  8  9  1  0  0  0
  9 10  2  0  0  0
 10 11  1  0  0  0
 10 28  1  0  0  0
 11 22  1  0  0  0
 12 11  2  0  0  0
 12 29  1  0  0  0
 13 12  1  0  0  0
 14 15  1  0  0  0
 14 13  1  0  0  0
 15 30  1  0  0  0
 15 31  1  0  0  0
 16 15  1  0  0  0
 16 21  2  0  0  0
 17 16  1  0  0  0
 17 32  1  0  0  0
 18 17  2  0  0  0
 18 19  1  0  0  0
 18 33  1  0  0  0
 19 20  2  0  0  0
 19 34  1  0  0  0
 20 21  1  0  0  0
 20 35  1  0  0  0
 21 36  1  0  0  0
 22 37  1  0  0  0
 22 38  1  0  0  0
 22 39  1  0  0  0
M  END
$$$$
