VO4
  CCTOOLS-0919241027

  5  4  0  0  0  0  0  0  0  0999 V2000
    0.0000    0.0000    0.0000 V   0  0  0  0  0
    0.0000   -1.4500   -1.0250 O   0  0  0  0  0
    0.0000    1.4500   -1.0250 O   0  5  0  0  0
   -1.4500    0.0000    1.0250 O   0  5  0  0  0
    1.4500    0.0000    1.0250 O   0  5  0  0  0
  1  2  2  0  0  0
  1  3  1  0  0  0
  1  4  1  0  0  0
  1  5  1  0  0  0
M  CHG  1   3  -1
M  CHG  1   4  -1
M  CHG  1   5  -1
M  END
$$$$
