VU2
  CCTOOLS-0919241028

 34 35  0  0  1  0  0  0  0  0999 V2000
    2.4570   -2.1180    0.6890 C   0  0  0  0  0
    4.8940    2.2260    0.3210 C   0  0  0  0  0
    5.0940    1.3340   -0.7160 C   0  0  0  0  0
    3.8040    2.0790    1.1590 C   0  0  0  0  0
   -0.1730   -1.2040   -0.8540 C   0  0  0  0  0
   -1.5350   -0.6350   -0.5490 C   0  0  0  0  0
   -2.0210    0.4270   -1.2880 C   0  0  0  0  0
   -3.2700    0.9500   -1.0080 C   0  0  0  0  0
   -4.0330    0.4100    0.0120 C   0  0  0  0  0
   -3.5460   -0.6530    0.7510 C   0  0  0  0  0
   -2.2990   -1.1780    0.4670 C   0  0  0  0  0
    1.5920   -3.2690    0.4000 N   0  0  0  0  0
    4.2060    0.2940   -0.9140 C   0  0  0  0  0
    3.1160    0.1460   -0.0760 C   0  0  0  0  0
    2.9160    1.0390    0.9600 C   0  0  0  0  0
    0.8130   -0.5210   -0.0780 O   0  0  0  0  0
   -5.6010    1.0660    0.3640 CL  0  0  0  0  0
    2.1470   -0.9870   -0.2930 C   0  0  0  0  0
    2.2760   -1.7750    1.7080 H   0  0  0  0  0
    3.5010   -2.4130    0.5860 H   0  0  0  0  0
    1.6940   -3.5660   -0.5590 H   0  0  0  0  0
    1.7780   -4.0300    1.0350 H   0  0  0  0  0
    2.2430   -1.3560   -1.3140 H   0  0  0  0  0
    5.5910    3.0360    0.4790 H   0  0  0  0  0
    5.9450    1.4500   -1.3700 H   0  0  0  0  0
    3.6480    2.7760    1.9690 H   0  0  0  0  0
    4.3620   -0.4020   -1.7250 H   0  0  0  0  0
    2.0640    0.9230    1.6150 H   0  0  0  0  0
   -0.1590   -2.2650   -0.6070 H   0  0  0  0  0
    0.0450   -1.0750   -1.9140 H   0  0  0  0  0
   -1.4260    0.8490   -2.0840 H   0  0  0  0  0
   -1.9200   -2.0110    1.0410 H   0  0  0  0  0
   -3.6500    1.7800   -1.5860 H   0  0  0  0  0
   -4.1410   -1.0750    1.5480 H   0  0  0  0  0
  1 12  1  0  0  0
  1 18  1  0  0  0
  1 19  1  0  0  0
  1 20  1  0  0  0
  2  3  1  0  0  0
  2  4  2  0  0  0
  2 24  1  0  0  0
  3 13  2  0  0  0
  3 25  1  0  0  0
  4 15  1  0  0  0
  4 26  1  0  0  0
  5  6  1  0  0  0
  5 16  1  0  0  0
  5 29  1  0  0  0
  5 30  1  0  0  0
  6  7  1  0  0  0
  6 11  2  0  0  0
  7  8  2  0  0  0
  7 31  1  0  0  0
  8  9  1  0  0  0
  8 33  1  0  0  0
  9 10  2  0  0  0
  9 17  1  0  0  0
 10 11  1  0  0  0
 10 34  1  0  0  0
 11 32  1  0  0  0
 12 21  1  0  0  0
 12 22  1  0  0  0
 13 14  1  0  0  0
 13 27  1  0  0  0
 14 15  2  0  0  0
 14 18  1  0  0  0
 15 28  1  0  0  0
 16 18  1  0  0  0
 18 23  1  0  0  0
M  END
$$$$
