VU3
  CCTOOLS-0919241028

 47 50  0  0  0  0  0  0  0  0999 V2000
   -1.4990    0.3070   -0.7470 C   0  0  0  0  0
   -2.9800    0.1630   -0.5090 C   0  0  0  0  0
   -3.8400    1.1980   -0.2590 N   0  0  0  0  0
   -5.1180    0.7150   -0.0900 C   0  0  0  0  0
   -6.3420    1.3180    0.1790 C   0  0  0  0  0
   -7.4760    0.5440    0.2950 C   0  0  0  0  0
   -7.4100   -0.8350    0.1470 C   0  0  0  0  0
   -6.2180   -1.4480   -0.1170 C   0  0  0  0  0
   -5.0560   -0.6830   -0.2390 C   0  0  0  0  0
   -0.7480    0.0900    0.5680 C   0  0  0  0  0
    5.9150   -1.1120    0.4450 C   0  0  0  0  0
    7.2340   -0.8240    0.1500 C   0  0  0  0  0
    7.5570    0.3570   -0.4910 C   0  0  0  0  0
    6.5610    1.2500   -0.8380 C   0  0  0  0  0
    5.2410    0.9630   -0.5430 C   0  0  0  0  0
    4.9180   -0.2190    0.0990 C   0  0  0  0  0
    3.4800   -0.5320    0.4200 C   0  0  0  0  0
    2.6650   -0.5810   -0.8750 C   0  0  0  0  0
    2.9090    0.5580    1.3320 C   0  0  0  0  0
    1.4320    0.2660    1.6060 C   0  0  0  0  0
    1.1950   -0.8400   -0.5380 C   0  0  0  0  0
   -3.6530   -0.9990   -0.5160 C   0  0  0  0  0
    0.6960    0.2300    0.3360 N   0  0  0  0  0
   -1.1750   -0.4350   -1.4770 H   0  0  0  0  0
   -1.2880    1.3060   -1.1270 H   0  0  0  0  0
   -1.0720    0.8320    1.2980 H   0  0  0  0  0
   -0.9600   -0.9090    0.9470 H   0  0  0  0  0
   -3.5870    2.1330   -0.2100 H   0  0  0  0  0
   -3.2380   -1.9800   -0.6900 H   0  0  0  0  0
   -6.4040    2.3900    0.2960 H   0  0  0  0  0
   -8.4250    1.0140    0.5040 H   0  0  0  0  0
   -8.3080   -1.4280    0.2400 H   0  0  0  0  0
   -6.1740   -2.5220   -0.2310 H   0  0  0  0  0
    5.6620   -2.0370    0.9430 H   0  0  0  0  0
    8.0120   -1.5220    0.4210 H   0  0  0  0  0
    8.5880    0.5820   -0.7210 H   0  0  0  0  0
    6.8130    2.1730   -1.3390 H   0  0  0  0  0
    4.4630    1.6610   -0.8130 H   0  0  0  0  0
    3.4210   -1.4970    0.9240 H   0  0  0  0  0
    2.7560    0.3710   -1.3980 H   0  0  0  0  0
    3.0390   -1.3830   -1.5110 H   0  0  0  0  0
    3.4590    0.5680    2.2740 H   0  0  0  0  0
    3.0050    1.5270    0.8440 H   0  0  0  0  0
    0.6090   -0.8600   -1.4570 H   0  0  0  0  0
    1.1020   -1.7980   -0.0270 H   0  0  0  0  0
    1.3390   -0.6980    2.1060 H   0  0  0  0  0
    1.0200    1.0480    2.2430 H   0  0  0  0  0
  1  2  1  0  0  0
  1 10  1  0  0  0
  1 24  1  0  0  0
  1 25  1  0  0  0
  2  3  1  0  0  0
  2 22  2  0  0  0
  3  4  1  0  0  0
  3 28  1  0  0  0
  4  5  1  0  0  0
  4  9  2  0  0  0
  5  6  2  0  0  0
  5 30  1  0  0  0
  6  7  1  0  0  0
  6 31  1  0  0  0
  7  8  2  0  0  0
  7 32  1  0  0  0
  8  9  1  0  0  0
  8 33  1  0  0  0
  9 22  1  0  0  0
 10 23  1  0  0  0
 10 26  1  0  0  0
 10 27  1  0  0  0
 11 12  1  0  0  0
 11 16  2  0  0  0
 11 34  1  0  0  0
 12 13  2  0  0  0
 12 35  1  0  0  0
 13 14  1  0  0  0
 13 36  1  0  0  0
 14 15  2  0  0  0
 14 37  1  0  0  0
 15 16  1  0  0  0
 15 38  1  0  0  0
 16 17  1  0  0  0
 17 18  1  0  0  0
 17 19  1  0  0  0
 17 39  1  0  0  0
 18 21  1  0  0  0
 18 40  1  0  0  0
 18 41  1  0  0  0
 19 20  1  0  0  0
 19 42  1  0  0  0
 19 43  1  0  0  0
 20 23  1  0  0  0
 20 46  1  0  0  0
 20 47  1  0  0  0
 21 23  1  0  0  0
 21 44  1  0  0  0
 21 45  1  0  0  0
 22 29  1  0  0  0
M  END
$$$$
