VXL
  CCTOOLS-0919241028

 88 91  0  0  1  0  0  0  0  0999 V2000
   -6.7940    5.7640    0.7560 C   0  0  0  0  0
   10.1780    0.9550   -1.4690 C   0  0  0  0  0
    5.8920   -2.2430    0.7160 C   0  0  0  0  0
    4.7730   -4.0630    2.0100 C   0  0  0  0  0
   -7.3800    3.2700   -0.0820 O   0  0  0  0  0
   -2.0380   -1.8970   -1.3530 O   0  0  0  0  0
    4.8210    0.7970    2.9560 O   0  0  0  0  0
    3.3740    1.9160    1.2520 O   0  0  0  0  0
    1.0200    0.8540    1.3410 O   0  0  0  0  0
   -2.3820   -0.4040   -4.6010 C   0  0  0  0  0
   -2.8130    0.3590   -3.5320 C   0  0  0  0  0
   -1.0940   -0.9070   -4.6150 C   0  0  0  0  0
   -1.9560    0.6220   -2.4800 C   0  0  0  0  0
   -0.2370   -0.6450   -3.5630 C   0  0  0  0  0
    6.5760    1.6170   -1.5840 C   0  0  0  0  0
    8.0160    0.7740    0.1440 C   0  0  0  0  0
    5.4950    1.5100   -0.7310 C   0  0  0  0  0
    6.9310    0.6690    0.9930 C   0  0  0  0  0
   -5.7730    2.1010    1.1910 C   0  0  0  0  0
   -6.4910   -0.9050    2.1110 C   0  0  0  0  0
   -4.6490   -3.3960    0.0210 C   0  0  0  0  0
    0.2660    0.4070   -1.3480 C   0  0  0  0  0
    3.8850   -1.7300    2.1120 C   0  0  0  0  0
    2.5670   -0.6390    0.2390 C   0  0  0  0  0
   -6.1090    4.5510    1.2080 N   0  0  0  0  0
   -1.2210   -0.6420    0.2860 N   0  0  0  0  0
    8.9060    1.3520   -1.9850 O   0  0  0  0  0
   -6.3420    0.9620    0.5410 O   0  0  0  0  0
   -6.4710   -2.3260    1.8570 O   0  0  0  0  0
   -6.0640   -3.6780   -0.0130 O   0  0  0  0  0
   -3.4750   -1.2390    0.2040 O   0  0  0  0  0
   -6.4790    3.3480    0.7260 C   0  0  0  0  0
   -2.2380   -1.2820   -0.3250 C   0  0  0  0  0
   -0.6680    0.1200   -2.4950 C   0  0  0  0  0
    7.8410    1.2480   -1.1480 C   0  0  0  0  0
    5.6720    1.0360    0.5560 C   0  0  0  0  0
    4.5470   -2.7770    1.2140 C   0  0  0  0  0
    1.1600   -0.4670    0.8150 C   0  0  0  0  0
    0.1250   -0.6890   -0.2890 C   0  0  0  0  0
   -5.7410   -0.2800    0.9140 C   0  0  0  0  0
   -4.5220   -1.9500   -0.5080 C   0  0  0  0  0
    3.5520   -0.5450    1.3190 N   0  0  0  0  0
   -6.7100   -2.4710    0.4410 C   0  0  0  0  0
   -5.8990   -1.3180   -0.2170 C   0  0  0  0  0
    4.2900    0.9020    1.6420 S   0  0  0  0  0
   -6.6790    5.8660   -0.3240 H   0  0  0  0  0
   -7.8540    5.6960    1.0030 H   0  0  0  0  0
   -6.3610    6.6330    1.2510 H   0  0  0  0  0
   10.4260    1.5680   -0.6020 H   0  0  0  0  0
   10.1390   -0.0940   -1.1730 H   0  0  0  0  0
   10.9400    1.0880   -2.2370 H   0  0  0  0  0
    6.4080   -3.0230    0.1560 H   0  0  0  0  0
    5.7230   -1.3830    0.0680 H   0  0  0  0  0
    6.5020   -1.9430    1.5680 H   0  0  0  0  0
    5.4190   -3.8550    2.8630 H   0  0  0  0  0
    3.8150   -4.4440    2.3650 H   0  0  0  0  0
    5.2450   -4.8090    1.3700 H   0  0  0  0  0
    1.1470    1.5540    0.6860 H   0  0  0  0  0
   -3.0520   -0.6130   -5.4210 H   0  0  0  0  0
   -3.8190    0.7530   -3.5210 H   0  0  0  0  0
   -0.7570   -1.5040   -5.4500 H   0  0  0  0  0
   -2.2930    1.2190   -1.6450 H   0  0  0  0  0
    0.7690   -1.0370   -3.5750 H   0  0  0  0  0
    6.4370    1.9820   -2.5900 H   0  0  0  0  0
    8.9990    0.4870    0.4860 H   0  0  0  0  0
    4.5100    1.7970   -1.0690 H   0  0  0  0  0
    7.0670    0.2990    1.9980 H   0  0  0  0  0
   -5.8890    1.9990    2.2700 H   0  0  0  0  0
   -4.7140    2.1690    0.9440 H   0  0  0  0  0
   -7.5180   -0.5410    2.1470 H   0  0  0  0  0
   -5.9740   -0.6790    3.0430 H   0  0  0  0  0
   -4.2730   -3.4600    1.0420 H   0  0  0  0  0
   -4.1080   -4.0860   -0.6270 H   0  0  0  0  0
    1.2930    0.4300   -1.7130 H   0  0  0  0  0
    0.0150    1.3720   -0.9070 H   0  0  0  0  0
    2.9740   -2.1460    2.5430 H   0  0  0  0  0
    4.5710   -1.4510    2.9120 H   0  0  0  0  0
    2.6460   -1.6150   -0.2410 H   0  0  0  0  0
    2.7570    0.1430   -0.4960 H   0  0  0  0  0
   -5.3880    4.6140    1.8540 H   0  0  0  0  0
   -1.3810   -0.1510    1.1070 H   0  0  0  0  0
    3.9010   -2.9860    0.3620 H   0  0  0  0  0
    1.0030   -1.1940    1.6120 H   0  0  0  0  0
    0.2890   -1.6630   -0.7510 H   0  0  0  0  0
   -4.6880   -0.1360    1.1580 H   0  0  0  0  0
   -4.3200   -1.9520   -1.5790 H   0  0  0  0  0
   -7.7710   -2.4460    0.1920 H   0  0  0  0  0
   -6.3720   -0.9040   -1.1080 H   0  0  0  0  0
  1 25  1  0  0  0
  1 46  1  0  0  0
  1 47  1  0  0  0
  1 48  1  0  0  0
  2 27  1  0  0  0
  2 49  1  0  0  0
  2 50  1  0  0  0
  2 51  1  0  0  0
  3 37  1  0  0  0
  3 52  1  0  0  0
  3 53  1  0  0  0
  3 54  1  0  0  0
  4 37  1  0  0  0
  4 55  1  0  0  0
  4 56  1  0  0  0
  4 57  1  0  0  0
  5 32  2  0  0  0
  6 33  2  0  0  0
  7 45  2  0  0  0
  8 45  2  0  0  0
  9 38  1  0  0  0
  9 58  1  0  0  0
 10 11  2  0  0  0
 10 12  1  0  0  0
 10 59  1  0  0  0
 11 13  1  0  0  0
 11 60  1  0  0  0
 12 14  2  0  0  0
 12 61  1  0  0  0
 13 34  2  0  0  0
 13 62  1  0  0  0
 14 34  1  0  0  0
 14 63  1  0  0  0
 15 17  2  0  0  0
 15 35  1  0  0  0
 15 64  1  0  0  0
 16 18  1  0  0  0
 16 35  2  0  0  0
 16 65  1  0  0  0
 17 36  1  0  0  0
 17 66  1  0  0  0
 18 36  2  0  0  0
 18 67  1  0  0  0
 19 28  1  0  0  0
 19 32  1  0  0  0
 19 68  1  0  0  0
 19 69  1  0  0  0
 20 29  1  0  0  0
 20 40  1  0  0  0
 20 70  1  0  0  0
 20 71  1  0  0  0
 21 30  1  0  0  0
 21 41  1  0  0  0
 21 72  1  0  0  0
 21 73  1  0  0  0
 22 34  1  0  0  0
 22 39  1  0  0  0
 22 74  1  0  0  0
 22 75  1  0  0  0
 23 37  1  0  0  0
 23 42  1  0  0  0
 23 76  1  0  0  0
 23 77  1  0  0  0
 24 38  1  0  0  0
 24 42  1  0  0  0
 24 78  1  0  0  0
 24 79  1  0  0  0
 25 32  1  0  0  0
 25 80  1  0  0  0
 26 33  1  0  0  0
 26 39  1  0  0  0
 26 81  1  0  0  0
 27 35  1  0  0  0
 28 40  1  0  0  0
 29 43  1  0  0  0
 30 43  1  0  0  0
 31 33  1  0  0  0
 31 41  1  0  0  0
 36 45  1  0  0  0
 37 82  1  0  0  0
 38 39  1  0  0  0
 38 83  1  0  0  0
 39 84  1  0  0  0
 40 44  1  0  0  0
 40 85  1  0  0  0
 41 44  1  0  0  0
 41 86  1  0  0  0
 42 45  1  0  0  0
 43 44  1  0  0  0
 43 87  1  0  0  0
 44 88  1  0  0  0
M  END
$$$$
