W07
  CCTOOLS-0919241029

 63 64  0  0  1  0  0  0  0  0999 V2000
   -3.8230   -0.4530   -0.6110 C   0  0  0  0  0
   -5.0670    1.3850    0.2410 C   0  0  0  0  0
   -6.2470    2.2810   -0.1410 C   0  0  0  0  0
   -3.5490   -1.4110   -1.5760 C   0  0  0  0  0
   -2.5080   -2.3000   -1.3900 C   0  0  0  0  0
   -0.6050   -3.2070   -0.0410 C   0  0  0  0  0
   -3.0510   -0.3910    0.5400 C   0  0  0  0  0
   -2.0110   -1.2830    0.7220 C   0  0  0  0  0
   -6.4090    3.3850    0.9060 C   0  0  0  0  0
   -0.4340   -4.0600   -1.2990 C   0  0  0  0  0
    0.6670   -2.4440    0.2260 C   0  0  0  0  0
    3.0030   -1.0450    0.7150 C   0  0  0  0  0
    2.5590   -1.9950    1.6230 C   0  0  0  0  0
    1.3930   -2.6930    1.3760 C   0  0  0  0  0
    4.5460    0.6060   -0.0230 C   0  0  0  0  0
    5.8500    1.2740    0.4170 C   0  0  0  0  0
    6.3400    2.2140   -0.6860 C   0  0  0  0  0
   -7.4340    4.2890    0.4910 O   0  0  0  0  0
   -7.4410    1.4990   -0.1980 O   0  0  0  0  0
   -4.8430    0.4260   -0.7950 O   0  0  0  0  0
   -1.7400   -2.2360   -0.2420 C   0  0  0  0  0
   -0.9150   -4.1140    1.1520 C   0  0  0  0  0
    1.1100   -1.5010   -0.6830 C   0  0  0  0  0
    2.2760   -0.8010   -0.4410 C   0  0  0  0  0
    4.1500   -0.3570    0.9550 O   0  0  0  0  0
    5.6220    2.0220    1.6140 O   0  0  0  0  0
    7.6440    2.8820   -0.2450 C   0  0  0  0  0
    6.5840    1.4130   -1.9670 C   0  0  0  0  0
    5.2810    3.2870   -0.9490 C   0  0  0  0  0
   -4.1740    1.9950    0.3710 H   0  0  0  0  0
   -5.2920    0.8660    1.1730 H   0  0  0  0  0
   -6.0600    2.7310   -1.1170 H   0  0  0  0  0
   -4.1480   -1.4620   -2.4730 H   0  0  0  0  0
   -2.2940   -3.0460   -2.1410 H   0  0  0  0  0
   -3.2620    0.3540    1.2930 H   0  0  0  0  0
   -1.4100   -1.2350    1.6180 H   0  0  0  0  0
   -6.6830    2.9400    1.8630 H   0  0  0  0  0
   -5.4690    3.9250    1.0130 H   0  0  0  0  0
    0.3870   -4.7620   -1.1540 H   0  0  0  0  0
   -1.3540   -4.6110   -1.4920 H   0  0  0  0  0
   -0.2130   -3.4130   -2.1490 H   0  0  0  0  0
    3.1260   -2.1900    2.5220 H   0  0  0  0  0
    1.0480   -3.4340    2.0820 H   0  0  0  0  0
    3.7670    1.3620   -0.1240 H   0  0  0  0  0
    4.6980    0.1100   -0.9810 H   0  0  0  0  0
    6.6050    0.5100    0.6050 H   0  0  0  0  0
   -7.5920    5.0160    1.1080 H   0  0  0  0  0
   -7.6690    1.0680    0.6370 H   0  0  0  0  0
   -1.0370   -3.5070    2.0490 H   0  0  0  0  0
   -1.8350   -4.6660    0.9590 H   0  0  0  0  0
   -0.0940   -4.8170    1.2970 H   0  0  0  0  0
    0.5430   -1.3110   -1.5830 H   0  0  0  0  0
    2.6210   -0.0640   -1.1510 H   0  0  0  0  0
    4.9610    2.7210    1.5200 H   0  0  0  0  0
    7.4700    3.4520    0.6670 H   0  0  0  0  0
    8.3990    2.1170   -0.0580 H   0  0  0  0  0
    7.9930    3.5510   -1.0320 H   0  0  0  0  0
    6.9330    2.0830   -2.7530 H   0  0  0  0  0
    7.3380    0.6490   -1.7800 H   0  0  0  0  0
    5.6550    0.9380   -2.2810 H   0  0  0  0  0
    5.1080    3.8570   -0.0360 H   0  0  0  0  0
    5.6300    3.9570   -1.7350 H   0  0  0  0  0
    4.3520    2.8110   -1.2630 H   0  0  0  0  0
  1  4  2  0  0  0
  1  7  1  0  0  0
  2  3  1  0  0  0
  2 20  1  0  0  0
  2 30  1  0  0  0
  2 31  1  0  0  0
  3 32  1  0  0  0
  4  5  1  0  0  0
  4 33  1  0  0  0
  5 21  2  0  0  0
  5 34  1  0  0  0
  6 11  1  0  0  0
  6 22  1  0  0  0
  7  8  2  0  0  0
  7 35  1  0  0  0
  8 21  1  0  0  0
  8 36  1  0  0  0
  9  3  1  0  0  0
  9 37  1  0  0  0
  9 38  1  0  0  0
 10  6  1  0  0  0
 10 39  1  0  0  0
 10 40  1  0  0  0
 10 41  1  0  0  0
 11 14  2  0  0  0
 11 23  1  0  0  0
 12 25  1  0  0  0
 13 12  2  0  0  0
 13 42  1  0  0  0
 14 13  1  0  0  0
 14 43  1  0  0  0
 15 16  1  0  0  0
 15 44  1  0  0  0
 15 45  1  0  0  0
 16 26  1  0  0  0
 16 46  1  0  0  0
 17 29  1  0  0  0
 17 16  1  0  0  0
 18  9  1  0  0  0
 18 47  1  0  0  0
 19  3  1  0  0  0
 19 48  1  0  0  0
 20  1  1  0  0  0
 21  6  1  0  0  0
 22 49  1  0  0  0
 22 50  1  0  0  0
 22 51  1  0  0  0
 23 24  2  0  0  0
 23 52  1  0  0  0
 24 12  1  0  0  0
 24 53  1  0  0  0
 25 15  1  0  0  0
 26 54  1  0  0  0
 27 17  1  0  0  0
 27 55  1  0  0  0
 27 56  1  0  0  0
 27 57  1  0  0  0
 28 17  1  0  0  0
 28 58  1  0  0  0
 28 59  1  0  0  0
 28 60  1  0  0  0
 29 61  1  0  0  0
 29 62  1  0  0  0
 29 63  1  0  0  0
M  END
$$$$
