W12
  CCTOOLS-0919241029

 75 76  0  0  1  0  0  0  0  0999 V2000
    3.6240   -0.5240    0.5960 C   0  0  0  0  0
    2.7890   -0.1350    1.6330 C   0  0  0  0  0
    1.8070    0.8110    1.4110 C   0  0  0  0  0
    1.6550    1.3690    0.1550 C   0  0  0  0  0
    2.4860    0.9830   -0.8810 C   0  0  0  0  0
    0.5860    2.4040   -0.0840 C   0  0  0  0  0
   -0.7700    1.7880    0.1470 C   0  0  0  0  0
   -2.8750    1.7830    1.2870 C   0  0  0  0  0
    0.7850    3.5750    0.8790 C   0  0  0  0  0
   -6.2130   -1.5350    0.3800 C   0  0  0  0  0
   -6.6120   -2.6970   -0.5320 C   0  0  0  0  0
   -6.6010   -2.2290   -1.9890 C   0  0  0  0  0
   -5.6190   -3.8470   -0.3590 C   0  0  0  0  0
   -0.3890    3.9800   -1.7600 C   0  0  0  0  0
   -0.3830    4.3920   -3.2340 C   0  0  0  0  0
    8.4180   -4.0400   -0.5850 O   0  0  0  0  0
    7.3940   -3.1450   -1.0250 C   0  0  0  0  0
    6.4350   -2.8590    0.1320 C   0  0  0  0  0
    5.7550   -4.0620    0.4950 O   0  0  0  0  0
    5.4130   -1.8060   -0.3010 C   0  0  0  0  0
    4.5900   -1.4540    0.8120 O   0  0  0  0  0
    3.4660    0.0340   -0.6640 C   0  0  0  0  0
    2.1620    4.2000    0.6450 C   0  0  0  0  0
    2.4120    5.2900    1.6900 C   0  0  0  0  0
    0.6780    2.9080   -1.5260 C   0  0  0  0  0
   -1.1480    0.6640   -0.5630 C   0  0  0  0  0
   -2.3900    0.0970   -0.3530 C   0  0  0  0  0
   -1.6320    2.3450    1.0730 C   0  0  0  0  0
   -3.2590    0.6570    0.5720 C   0  0  0  0  0
   -4.4810    0.1020    0.7810 O   0  0  0  0  0
   -4.8080   -1.0560    0.0090 C   0  0  0  0  0
   -6.2240   -1.9730    1.7400 O   0  0  0  0  0
   -8.0170   -3.1760   -0.1620 C   0  0  0  0  0
    2.9060   -0.5710    2.6140 H   0  0  0  0  0
    1.1560    1.1140    2.2180 H   0  0  0  0  0
    2.3650    1.4200   -1.8610 H   0  0  0  0  0
   -3.5480    2.2180    2.0110 H   0  0  0  0  0
    0.0120    4.3240    0.7060 H   0  0  0  0  0
    0.7200    3.2160    1.9060 H   0  0  0  0  0
   -6.9210   -0.7160    0.2560 H   0  0  0  0  0
   -5.6000   -1.8870   -2.2530 H   0  0  0  0  0
   -6.8850   -3.0560   -2.6390 H   0  0  0  0  0
   -7.3090   -1.4090   -2.1130 H   0  0  0  0  0
   -5.6270   -4.1810    0.6790 H   0  0  0  0  0
   -5.9030   -4.6740   -1.0080 H   0  0  0  0  0
   -4.6180   -3.5050   -0.6220 H   0  0  0  0  0
   -0.1720    4.8500   -1.1390 H   0  0  0  0  0
   -1.3680    3.5820   -1.4980 H   0  0  0  0  0
    0.5970    4.7910   -3.4960 H   0  0  0  0  0
   -0.5990    3.5230   -3.8550 H   0  0  0  0  0
   -1.1430    5.1560   -3.4000 H   0  0  0  0  0
    9.0640   -4.2660   -1.2680 H   0  0  0  0  0
    7.8470   -2.2120   -1.3600 H   0  0  0  0  0
    6.8450   -3.5990   -1.8490 H   0  0  0  0  0
    6.9980   -2.4880    0.9880 H   0  0  0  0  0
    5.2320   -4.4500   -0.2210 H   0  0  0  0  0
    5.9350   -0.9200   -0.6620 H   0  0  0  0  0
    4.7900   -2.2110   -1.0990 H   0  0  0  0  0
    4.1150   -0.2670   -1.4740 H   0  0  0  0  0
    2.9300    3.4310    0.7320 H   0  0  0  0  0
    2.1970    4.6380   -0.3520 H   0  0  0  0  0
    3.3930    5.7350    1.5230 H   0  0  0  0  0
    1.6450    6.0590    1.6030 H   0  0  0  0  0
    2.3770    4.8520    2.6870 H   0  0  0  0  0
    1.6660    3.3350   -1.6990 H   0  0  0  0  0
    0.5150    2.0780   -2.2130 H   0  0  0  0  0
   -0.4710    0.2280   -1.2840 H   0  0  0  0  0
   -2.6840   -0.7810   -0.9080 H   0  0  0  0  0
   -1.3330    3.2210    1.6300 H   0  0  0  0  0
   -4.0880   -1.8470    0.2180 H   0  0  0  0  0
   -4.7770   -0.8060   -1.0510 H   0  0  0  0  0
   -5.6160   -2.7020    1.9240 H   0  0  0  0  0
   -8.7250   -2.3570   -0.2860 H   0  0  0  0  0
   -8.3020   -4.0040   -0.8120 H   0  0  0  0  0
   -8.0260   -3.5100    0.8760 H   0  0  0  0  0
  1 21  1  0  0  0
  2  1  1  0  0  0
  2 34  1  0  0  0
  3  2  2  0  0  0
  3 35  1  0  0  0
  4  5  2  0  0  0
  4  3  1  0  0  0
  5 22  1  0  0  0
  5 36  1  0  0  0
  6  7  1  0  0  0
  6  4  1  0  0  0
  7 26  2  0  0  0
  8 28  2  0  0  0
  8 29  1  0  0  0
  8 37  1  0  0  0
  9  6  1  0  0  0
  9 23  1  0  0  0
  9 38  1  0  0  0
  9 39  1  0  0  0
 10 31  1  0  0  0
 10 11  1  0  0  0
 10 40  1  0  0  0
 11 13  1  0  0  0
 11 33  1  0  0  0
 12 11  1  0  0  0
 12 41  1  0  0  0
 12 42  1  0  0  0
 12 43  1  0  0  0
 13 44  1  0  0  0
 13 45  1  0  0  0
 13 46  1  0  0  0
 14 47  1  0  0  0
 14 48  1  0  0  0
 15 14  1  0  0  0
 15 49  1  0  0  0
 15 50  1  0  0  0
 15 51  1  0  0  0
 16 17  1  0  0  0
 16 52  1  0  0  0
 17 53  1  0  0  0
 17 54  1  0  0  0
 18 19  1  0  0  0
 18 17  1  0  0  0
 18 20  1  0  0  0
 18 55  1  0  0  0
 19 56  1  0  0  0
 20 57  1  0  0  0
 20 58  1  0  0  0
 21 20  1  0  0  0
 22  1  2  0  0  0
 22 59  1  0  0  0
 23 60  1  0  0  0
 23 61  1  0  0  0
 24 23  1  0  0  0
 24 62  1  0  0  0
 24 63  1  0  0  0
 24 64  1  0  0  0
 25 14  1  0  0  0
 25  6  1  0  0  0
 25 65  1  0  0  0
 25 66  1  0  0  0
 26 27  1  0  0  0
 26 67  1  0  0  0
 27 68  1  0  0  0
 28  7  1  0  0  0
 28 69  1  0  0  0
 29 27  2  0  0  0
 30 29  1  0  0  0
 30 31  1  0  0  0
 31 70  1  0  0  0
 31 71  1  0  0  0
 32 10  1  0  0  0
 32 72  1  0  0  0
 33 73  1  0  0  0
 33 74  1  0  0  0
 33 75  1  0  0  0
M  END
$$$$
