W14
  CCTOOLS-0919241029

 27 28  0  0  0  0  0  0  0  0999 V2000
   -2.8710   -1.5550   -0.2860 O   0  0  0  0  0
    4.4210    1.9590    0.0200 O   0  0  0  0  0
   -3.9780    0.7540   -0.7020 F   0  0  0  0  0
   -1.8420    1.4830   -1.0590 F   0  0  0  0  0
   -2.7010    1.4530    1.0590 F   0  0  0  0  0
    3.9360   -0.3090   -0.5170 C   0  0  0  0  0
    3.0330   -1.3490   -0.5660 C   0  0  0  0  0
    2.2380    1.1010    0.4140 C   0  0  0  0  0
    0.7930   -2.3520   -0.2260 C   0  0  0  0  0
   -0.4060   -2.1770    0.7040 C   0  0  0  0  0
   -0.0640    0.3030    0.8780 C   0  0  0  0  0
   -2.1710   -0.6100    0.0110 C   0  0  0  0  0
    3.5390    0.9270   -0.0270 C   0  0  0  0  0
    1.7260   -1.1730   -0.1270 C   0  0  0  0  0
    1.3330    0.0500    0.3680 C   0  0  0  0  0
   -0.9350   -0.8170    0.5090 N   0  0  0  0  0
   -2.6820    0.7950   -0.1760 C   0  0  0  0  0
    4.4330    2.5030   -0.7800 H   0  0  0  0  0
    4.9510   -0.4570   -0.8550 H   0  0  0  0  0
    3.3440   -2.3090   -0.9490 H   0  0  0  0  0
    1.9260    2.0610    0.7970 H   0  0  0  0  0
    1.3310   -3.2590    0.0500 H   0  0  0  0  0
    0.4400   -2.4440   -1.2530 H   0  0  0  0  0
   -1.1740   -2.9100    0.4580 H   0  0  0  0  0
   -0.0920   -2.3050    1.7400 H   0  0  0  0  0
   -0.0400    0.4030    1.9640 H   0  0  0  0  0
   -0.4500    1.2230    0.4380 H   0  0  0  0  0
  1 12  2  0  0  0
  2 13  1  0  0  0
  2 18  1  0  0  0
  3 17  1  0  0  0
  4 17  1  0  0  0
  5 17  1  0  0  0
  6  7  2  0  0  0
  6 13  1  0  0  0
  6 19  1  0  0  0
  7 14  1  0  0  0
  7 20  1  0  0  0
  8 13  2  0  0  0
  8 15  1  0  0  0
  8 21  1  0  0  0
  9 10  1  0  0  0
  9 14  1  0  0  0
  9 22  1  0  0  0
  9 23  1  0  0  0
 10 16  1  0  0  0
 10 24  1  0  0  0
 10 25  1  0  0  0
 11 15  1  0  0  0
 11 16  1  0  0  0
 11 26  1  0  0  0
 11 27  1  0  0  0
 12 16  1  0  0  0
 12 17  1  0  0  0
 14 15  2  0  0  0
M  END
$$$$
