W23
  CCTOOLS-0919241029

 28 29  0  0  0  0  0  0  0  0999 V2000
    1.8830   -0.2190   -0.7220 C   0  0  0  0  0
    1.6000   -0.7100    0.5330 C   0  0  0  0  0
    3.1310    0.3360   -0.9760 C   0  0  0  0  0
    0.8860   -0.2400   -1.8510 C   0  0  0  0  0
    2.5550   -0.6310    1.5390 C   0  0  0  0  0
    0.2790   -1.3550    0.8680 C   0  0  0  0  0
    3.7910   -0.0750    1.2910 C   0  0  0  0  0
    4.0840    0.4100    0.0240 C   0  0  0  0  0
   -0.2040   -1.2790   -1.5950 C   0  0  0  0  0
   -2.1760    1.1680    0.1530 C   0  0  0  0  0
   -1.7340    1.6500   -1.0840 F   0  0  0  0  0
   -1.2920    1.5790    1.1560 F   0  0  0  0  0
   -3.4530    1.6730    0.4210 F   0  0  0  0  0
   -0.6810   -1.1050   -0.2130 N   0  0  0  0  0
    5.3030    0.9540   -0.2330 O   0  0  0  0  0
   -2.4980   -1.1660    1.4050 O   0  0  0  0  0
   -2.9760   -1.0900   -1.0220 O   0  0  0  0  0
   -2.2390   -0.6450    0.1080 S   0  0  0  0  0
    3.3590    0.7130   -1.9620 H   0  0  0  0  0
    0.4290    0.7450   -1.9430 H   0  0  0  0  0
    1.4020   -0.4830   -2.7800 H   0  0  0  0  0
    2.3260   -1.0090    2.5250 H   0  0  0  0  0
    0.4190   -2.4290    0.9860 H   0  0  0  0  0
   -0.1050   -0.9350    1.7980 H   0  0  0  0  0
    4.5280   -0.0170    2.0780 H   0  0  0  0  0
   -1.0290   -1.1270   -2.2910 H   0  0  0  0  0
    0.2050   -2.2810   -1.7200 H   0  0  0  0  0
    5.3490    1.9070   -0.0740 H   0  0  0  0  0
  1  2  2  0  0  0
  1  3  1  0  0  0
  1  4  1  0  0  0
  2  5  1  0  0  0
  2  6  1  0  0  0
  3  8  2  0  0  0
  3 19  1  0  0  0
  4  9  1  0  0  0
  4 20  1  0  0  0
  4 21  1  0  0  0
  5  7  2  0  0  0
  5 22  1  0  0  0
  6 14  1  0  0  0
  6 23  1  0  0  0
  6 24  1  0  0  0
  7  8  1  0  0  0
  7 25  1  0  0  0
  8 15  1  0  0  0
  9 14  1  0  0  0
  9 26  1  0  0  0
  9 27  1  0  0  0
 10 11  1  0  0  0
 10 12  1  0  0  0
 10 13  1  0  0  0
 10 18  1  0  0  0
 14 18  1  0  0  0
 15 28  1  0  0  0
 16 18  2  0  0  0
 17 18  2  0  0  0
M  END
$$$$
