WC1
  CCTOOLS-0919241030

 57 59  0  0  1  0  0  0  0  0999 V2000
    0.6740   -2.1500   -0.2170 O   0  0  0  0  0
   -0.3890   -1.5770   -1.0730 P   0  0  0  0  0
    0.1830   -0.2850   -1.8460 O   0  0  0  0  0
   -0.8650   -2.6780   -2.1470 O   0  0  0  0  0
   -1.8060   -1.0860   -0.0360 C   0  0  0  0  0
   -2.6840   -2.5770    0.5380 P   0  0  0  0  0
   -3.6720   -2.1860    1.7470 O   0  0  0  0  0
   -3.4710   -3.1460   -0.5790 O   0  0  0  0  0
   -1.6150   -3.6660    1.0500 O   0  0  0  0  0
   -1.3030   -0.2940    1.1730 C   0  0  0  0  0
   -0.7170    1.0140    0.7070 C   0  0  0  0  0
   -1.3890    2.1520    0.4700 C   0  0  0  0  0
   -2.8770    2.3260    0.6320 C   0  0  0  0  0
   -3.1550    3.3150    1.7650 C   0  0  0  0  0
   -3.4710    2.8650   -0.6720 C   0  0  0  0  0
   -3.1930    1.8760   -1.8060 C   0  0  0  0  0
   -4.9820    3.0420   -0.5080 C   0  0  0  0  0
   -0.5230    3.1290    0.0620 N   0  0  0  0  0
    0.7610    2.6330    0.0240 C   0  0  0  0  0
    1.9900    3.1910   -0.3150 C   0  0  0  0  0
    3.1260    2.4360   -0.2560 C   0  0  0  0  0
    0.6970    1.2870    0.4330 C   0  0  0  0  0
    1.8610    0.5230    0.4980 C   0  0  0  0  0
    3.0740    1.0960    0.1420 C   0  0  0  0  0
    4.3200    0.2940    0.2070 C   0  0  0  0  0
    5.5400    0.8660   -0.1490 C   0  0  0  0  0
    6.6960    0.1150   -0.0860 C   0  0  0  0  0
    6.6460   -1.2040    0.3300 C   0  0  0  0  0
    5.4380   -1.7760    0.6850 C   0  0  0  0  0
    4.2760   -1.0330    0.6310 C   0  0  0  0  0
    0.9790   -0.4600   -2.3670 H   0  0  0  0  0
   -1.5620   -2.3700   -2.7430 H   0  0  0  0  0
   -2.4860   -0.4660   -0.6200 H   0  0  0  0  0
   -4.1740   -2.9320    2.1020 H   0  0  0  0  0
   -1.0620   -3.3610    1.7830 H   0  0  0  0  0
   -2.1350   -0.0980    1.8500 H   0  0  0  0  0
   -0.5380   -0.8700    1.6930 H   0  0  0  0  0
   -3.3320    1.3650    0.8680 H   0  0  0  0  0
   -2.8080    4.3070    1.4760 H   0  0  0  0  0
   -4.2260    3.3490    1.9640 H   0  0  0  0  0
   -2.6280    2.9940    2.6640 H   0  0  0  0  0
   -3.0160    3.8260   -0.9080 H   0  0  0  0  0
   -3.6490    0.9140   -1.5690 H   0  0  0  0  0
   -3.6170    2.2600   -2.7340 H   0  0  0  0  0
   -2.1170    1.7500   -1.9220 H   0  0  0  0  0
   -5.4370    2.0810   -0.2710 H   0  0  0  0  0
   -5.1800    3.7470    0.3000 H   0  0  0  0  0
   -5.4050    3.4260   -1.4360 H   0  0  0  0  0
   -0.7760    4.0370   -0.1680 H   0  0  0  0  0
    2.0460    4.2240   -0.6240 H   0  0  0  0  0
    4.0760    2.8780   -0.5200 H   0  0  0  0  0
    1.8170   -0.5110    0.8090 H   0  0  0  0  0
    5.5800    1.8950   -0.4740 H   0  0  0  0  0
    7.6420    0.5570   -0.3630 H   0  0  0  0  0
    7.5520   -1.7890    0.3730 H   0  0  0  0  0
    5.4040   -2.8060    1.0080 H   0  0  0  0  0
    3.3330   -1.4810    0.9080 H   0  0  0  0  0
  1  2  2  0  0  0
  2  3  1  0  0  0
  2  5  1  0  0  0
  3 31  1  0  0  0
  4  2  1  0  0  0
  4 32  1  0  0  0
  5  6  1  0  0  0
  5 33  1  0  0  0
  6  9  1  0  0  0
  6  7  1  0  0  0
  7 34  1  0  0  0
  8  6  2  0  0  0
  9 35  1  0  0  0
 10  5  1  0  0  0
 10 11  1  0  0  0
 10 36  1  0  0  0
 10 37  1  0  0  0
 11 22  1  0  0  0
 11 12  2  0  0  0
 12 13  1  0  0  0
 12 18  1  0  0  0
 13 14  1  0  0  0
 13 38  1  0  0  0
 14 39  1  0  0  0
 14 40  1  0  0  0
 14 41  1  0  0  0
 15 13  1  0  0  0
 15 17  1  0  0  0
 15 42  1  0  0  0
 16 15  1  0  0  0
 16 43  1  0  0  0
 16 44  1  0  0  0
 16 45  1  0  0  0
 17 46  1  0  0  0
 17 47  1  0  0  0
 17 48  1  0  0  0
 18 49  1  0  0  0
 19 18  1  0  0  0
 19 20  2  0  0  0
 20 50  1  0  0  0
 21 20  1  0  0  0
 21 51  1  0  0  0
 22 19  1  0  0  0
 23 22  2  0  0  0
 23 24  1  0  0  0
 23 52  1  0  0  0
 24 21  2  0  0  0
 25 24  1  0  0  0
 26 25  1  0  0  0
 26 53  1  0  0  0
 27 26  2  0  0  0
 27 54  1  0  0  0
 28 29  2  0  0  0
 28 27  1  0  0  0
 28 55  1  0  0  0
 29 30  1  0  0  0
 29 56  1  0  0  0
 30 25  2  0  0  0
 30 57  1  0  0  0
M  END
$$$$
