WRA
  CCTOOLS-0919241032

 42 43  0  0  0  0  0  0  0  0999 V2000
    0.2110   -1.1640    4.7860 C   0  0  0  0  0
    0.3290   -0.9930    6.2390 N   0  0  0  0  0
    0.5270    0.1920    6.7500 C   0  0  0  0  0
    0.5860    1.2960    5.9860 N   0  0  0  0  0
    0.1990    1.2690    4.7250 C   0  0  0  0  0
   -0.2930    0.0920    4.2120 N   0  0  0  0  0
   -1.2510    0.0910    3.1700 O   0  0  0  0  0
   -0.5240    0.0720    1.9400 C   0  0  0  0  0
   -1.5060    0.0690    0.7670 C   0  0  0  0  0
   -0.7270    0.0480   -0.5490 C   0  0  0  0  0
   -1.6440    0.0460   -1.6450 O   0  0  0  0  0
   -0.8980    0.0280   -2.7820 C   0  0  0  0  0
   -1.5220    0.0150   -4.0220 C   0  0  0  0  0
   -0.7610    0.0010   -5.1770 C   0  0  0  0  0
    0.6180   -0.0090   -5.0960 C   0  0  0  0  0
    1.2420   -0.0020   -3.8600 C   0  0  0  0  0
    0.4850    0.0160   -2.7030 C   0  0  0  0  0
    1.5830   -1.4870    4.1920 C   0  0  0  0  0
   -0.7640   -2.3000    4.4780 C   0  0  0  0  0
    0.6810    0.3140    8.1170 N   0  0  0  0  0
    0.2850    2.3880    3.9440 N   0  0  0  0  0
   -3.2550    0.0300   -4.1230 CL  0  0  0  0  0
    1.5710   -0.0340   -6.5480 CL  0  0  0  0  0
    2.9750   -0.0180   -3.7630 CL  0  0  0  0  0
    0.1100    0.9550    1.8800 H   0  0  0  0  0
    0.0940   -0.8240    1.8980 H   0  0  0  0  0
   -2.1410   -0.8140    0.8270 H   0  0  0  0  0
   -2.1250    0.9650    0.8090 H   0  0  0  0  0
   -0.0920    0.9320   -0.6090 H   0  0  0  0  0
   -0.1080   -0.8470   -0.5910 H   0  0  0  0  0
   -1.2460   -0.0030   -6.1420 H   0  0  0  0  0
    0.9720    0.0220   -1.7390 H   0  0  0  0  0
    1.9590   -2.4130    4.6270 H   0  0  0  0  0
    1.4930   -1.6030    3.1120 H   0  0  0  0  0
    2.2760   -0.6750    4.4130 H   0  0  0  0  0
   -0.3910   -3.2280    4.9130 H   0  0  0  0  0
   -1.7400   -2.0660    4.9030 H   0  0  0  0  0
   -0.8570   -2.4170    3.3980 H   0  0  0  0  0
    0.8280    1.1880    8.5120 H   0  0  0  0  0
    0.6410   -0.4720    8.6820 H   0  0  0  0  0
    0.6350    3.2130    4.3160 H   0  0  0  0  0
   -0.0020    2.3570    3.0180 H   0  0  0  0  0
  1  2  1  0  0  0
  1  6  1  0  0  0
  1 18  1  0  0  0
  1 19  1  0  0  0
  2  3  2  0  0  0
  3  4  1  0  0  0
  3 20  1  0  0  0
  4  5  2  0  0  0
  5  6  1  0  0  0
  5 21  1  0  0  0
  6  7  1  0  0  0
  7  8  1  0  0  0
  8  9  1  0  0  0
  8 25  1  0  0  0
  8 26  1  0  0  0
  9 10  1  0  0  0
  9 27  1  0  0  0
  9 28  1  0  0  0
 10 11  1  0  0  0
 10 29  1  0  0  0
 10 30  1  0  0  0
 11 12  1  0  0  0
 12 13  1  0  0  0
 12 17  2  0  0  0
 13 14  2  0  0  0
 13 22  1  0  0  0
 14 15  1  0  0  0
 14 31  1  0  0  0
 15 16  2  0  0  0
 15 23  1  0  0  0
 16 17  1  0  0  0
 16 24  1  0  0  0
 17 32  1  0  0  0
 18 33  1  0  0  0
 18 34  1  0  0  0
 18 35  1  0  0  0
 19 36  1  0  0  0
 19 37  1  0  0  0
 19 38  1  0  0  0
 20 39  1  0  0  0
 20 40  1  0  0  0
 21 41  1  0  0  0
 21 42  1  0  0  0
M  END
$$$$
