WV7
  CCTOOLS-0919241032

 27 28  0  0  0  0  0  0  0  0999 V2000
   -2.7250   -1.7290   -0.3570 O   0  0  0  0  0
    5.1920    0.3080   -0.6730 O   0  0  0  0  0
   -4.0830    0.4340   -0.8080 F   0  0  0  0  0
   -2.0380    1.4170   -1.0720 F   0  0  0  0  0
   -2.9720    1.2640    1.0070 F   0  0  0  0  0
    3.3200    1.5030    0.1840 C   0  0  0  0  0
    1.9960    1.5130    0.5680 C   0  0  0  0  0
    3.1160   -0.8160   -0.3890 C   0  0  0  0  0
    1.0020   -2.0830   -0.1480 C   0  0  0  0  0
   -0.2470   -2.0620    0.7320 C   0  0  0  0  0
   -0.2110    0.4400    0.9310 C   0  0  0  0  0
   -2.1560   -0.7100   -0.0270 C   0  0  0  0  0
    3.8870    0.3300   -0.2960 C   0  0  0  0  0
    1.2250    0.3610    0.4780 C   0  0  0  0  0
    1.7820   -0.8030   -0.0050 C   0  0  0  0  0
   -0.9260   -0.7730    0.5210 N   0  0  0  0  0
   -2.8240    0.6250   -0.2290 C   0  0  0  0  0
    5.8040    0.0780    0.0400 H   0  0  0  0  0
    3.9120    2.4040    0.2510 H   0  0  0  0  0
    1.5550    2.4240    0.9430 H   0  0  0  0  0
    3.5570   -1.7280   -0.7640 H   0  0  0  0  0
    1.6330   -2.9220    0.1450 H   0  0  0  0  0
    0.7050   -2.2070   -1.1900 H   0  0  0  0  0
   -0.9100   -2.8790    0.4500 H   0  0  0  0  0
    0.0390   -2.1610    1.7790 H   0  0  0  0  0
   -0.2450    0.5320    2.0160 H   0  0  0  0  0
   -0.6860    1.3110    0.4790 H   0  0  0  0  0
  1 12  2  0  0  0
  2 13  1  0  0  0
  2 18  1  0  0  0
  3 17  1  0  0  0
  4 17  1  0  0  0
  5 17  1  0  0  0
  6  7  2  0  0  0
  6 13  1  0  0  0
  6 19  1  0  0  0
  7 14  1  0  0  0
  7 20  1  0  0  0
  8 13  2  0  0  0
  8 15  1  0  0  0
  8 21  1  0  0  0
  9 10  1  0  0  0
  9 15  1  0  0  0
  9 22  1  0  0  0
  9 23  1  0  0  0
 10 16  1  0  0  0
 10 24  1  0  0  0
 10 25  1  0  0  0
 11 14  1  0  0  0
 11 16  1  0  0  0
 11 26  1  0  0  0
 11 27  1  0  0  0
 12 16  1  0  0  0
 12 17  1  0  0  0
 14 15  2  0  0  0
M  END
$$$$
