WWV
  CCTOOLS-0919241033

 42 43  0  0  0  0  0  0  0  0999 V2000
   -3.8060    0.1350   -0.0380 C   0  0  0  0  0
   -6.1410    0.7410    1.2870 N   0  0  0  0  0
   -6.1440   -0.0230   -1.0600 O   0  0  0  0  0
   -5.4990   -0.3050    0.1740 S   0  0  0  0  0
   -2.8370   -0.4440    0.7610 C   0  0  0  0  0
   -5.5070   -1.5900    0.7800 O   0  0  0  0  0
   -1.5090   -0.1020    0.5980 C   0  0  0  0  0
   -1.1470    0.8250   -0.3710 C   0  0  0  0  0
   -2.1220    1.4050   -1.1720 C   0  0  0  0  0
   -3.4480    1.0540   -1.0070 C   0  0  0  0  0
    0.1970    1.1750   -0.5390 N   0  0  0  0  0
    1.1630    0.2580   -0.3290 C   0  0  0  0  0
    0.8640   -0.8960   -0.0880 O   0  0  0  0  0
    2.4600    0.6210   -0.3870 N   0  0  0  0  0
    3.4630   -0.3500   -0.2820 C   0  0  0  0  0
    4.7390    0.0100    0.1330 C   0  0  0  0  0
    5.7260   -0.9500    0.2350 C   0  0  0  0  0
    5.4460   -2.2680   -0.0760 C   0  0  0  0  0
    4.1770   -2.6290   -0.4890 C   0  0  0  0  0
    3.1830   -1.6750   -0.5880 C   0  0  0  0  0
    5.0450    1.4460    0.4710 C   0  0  0  0  0
    5.6240    1.5250    1.8850 C   0  0  0  0  0
    6.0630    1.9990   -0.5290 C   0  0  0  0  0
   -5.5850    1.4310    1.6810 H   0  0  0  0  0
   -3.1200   -1.1650    1.5150 H   0  0  0  0  0
    6.7180   -0.6710    0.5580 H   0  0  0  0  0
   -0.7530   -0.5540    1.2220 H   0  0  0  0  0
    6.2200   -3.0170    0.0040 H   0  0  0  0  0
    3.9610   -3.6590   -0.7320 H   0  0  0  0  0
   -1.8440    2.1260   -1.9260 H   0  0  0  0  0
    2.1920   -1.9570   -0.9110 H   0  0  0  0  0
   -4.2070    1.5050   -1.6300 H   0  0  0  0  0
    4.1290    2.0350    0.4200 H   0  0  0  0  0
    0.4340    2.0760   -0.8070 H   0  0  0  0  0
    4.8990    1.1310    2.5970 H   0  0  0  0  0
    6.5400    0.9360    1.9360 H   0  0  0  0  0
    5.8460    2.5640    2.1290 H   0  0  0  0  0
    6.9790    1.4110   -0.4780 H   0  0  0  0  0
    5.6500    1.9430   -1.5360 H   0  0  0  0  0
    6.2840    3.0380   -0.2840 H   0  0  0  0  0
    2.6980    1.5540   -0.5000 H   0  0  0  0  0
   -7.0730    0.6630    1.5430 H   0  0  0  0  0
  1  4  1  0  0  0
  2 24  1  0  0  0
  2  4  1  0  0  0
  2 42  1  0  0  0
  3  4  2  0  0  0
  4  6  2  0  0  0
  5  1  2  0  0  0
  5 25  1  0  0  0
  7  5  1  0  0  0
  8  7  2  0  0  0
  8  9  1  0  0  0
  9 10  2  0  0  0
 10  1  1  0  0  0
 10 32  1  0  0  0
 11  8  1  0  0  0
 12 11  1  0  0  0
 13 12  2  0  0  0
 14 12  1  0  0  0
 14 41  1  0  0  0
 15 14  1  0  0  0
 15 16  1  0  0  0
 16 21  1  0  0  0
 17 16  2  0  0  0
 17 26  1  0  0  0
 18 17  1  0  0  0
 19 18  2  0  0  0
 19 20  1  0  0  0
 20 15  2  0  0  0
 21 22  1  0  0  0
 21 23  1  0  0  0
 22 35  1  0  0  0
 22 36  1  0  0  0
 23 39  1  0  0  0
 23 38  1  0  0  0
 27  7  1  0  0  0
 28 18  1  0  0  0
 29 19  1  0  0  0
 30  9  1  0  0  0
 31 20  1  0  0  0
 33 21  1  0  0  0
 34 11  1  0  0  0
 37 22  1  0  0  0
 40 23  1  0  0  0
M  END
$$$$
