WWZ
  CCTOOLS-0919241033

 33 34  0  0  0  0  0  0  0  0999 V2000
   -3.4600    0.0230   -0.0310 C   0  0  0  0  0
   -5.8870   -0.0650    1.2630 N   0  0  0  0  0
   -5.7240   -0.2140   -1.1950 O   0  0  0  0  0
   -5.0680   -0.6970   -0.0310 S   0  0  0  0  0
   -2.4290   -0.5890    0.6590 C   0  0  0  0  0
   -4.8890   -2.0790    0.2440 O   0  0  0  0  0
   -1.1680   -0.0270    0.6600 C   0  0  0  0  0
   -0.9340    1.1540   -0.0320 C   0  0  0  0  0
   -1.9710    1.7660   -0.7240 C   0  0  0  0  0
   -3.2290    1.1960   -0.7260 C   0  0  0  0  0
    0.3430    1.7260   -0.0320 N   0  0  0  0  0
    1.4350    0.9370    0.0120 C   0  0  0  0  0
    1.3140   -0.2720   -0.0450 O   0  0  0  0  0
    2.6600    1.4870    0.1180 N   0  0  0  0  0
    3.8000    0.6770    0.0540 C   0  0  0  0  0
    4.9280    1.0030    0.7950 C   0  0  0  0  0
    6.0510    0.2010    0.7320 C   0  0  0  0  0
    6.0530   -0.9260   -0.0720 C   0  0  0  0  0
    7.1530   -1.7090   -0.1330 F   0  0  0  0  0
    4.9290   -1.2540   -0.8120 C   0  0  0  0  0
    3.8020   -0.4580   -0.7460 C   0  0  0  0  0
    4.9270    1.8830    1.4220 H   0  0  0  0  0
   -5.4530    0.5780    1.8450 H   0  0  0  0  0
   -2.6120   -1.5070    1.1970 H   0  0  0  0  0
    6.9280    0.4550    1.3080 H   0  0  0  0  0
   -0.3640   -0.5060    1.2000 H   0  0  0  0  0
    4.9330   -2.1340   -1.4380 H   0  0  0  0  0
   -1.7920    2.6840   -1.2640 H   0  0  0  0  0
    2.9250   -0.7160   -1.3210 H   0  0  0  0  0
   -4.0350    1.6720   -1.2650 H   0  0  0  0  0
    0.4420    2.6900   -0.0630 H   0  0  0  0  0
    2.7530    2.4460    0.2380 H   0  0  0  0  0
   -6.8010   -0.3390    1.4390 H   0  0  0  0  0
  1  4  1  0  0  0
  2 23  1  0  0  0
  2  4  1  0  0  0
  2 33  1  0  0  0
  3  4  2  0  0  0
  4  6  2  0  0  0
  5  1  1  0  0  0
  5 24  1  0  0  0
  7  5  2  0  0  0
  8  7  1  0  0  0
  8  9  2  0  0  0
  9 10  1  0  0  0
 10  1  2  0  0  0
 10 30  1  0  0  0
 11  8  1  0  0  0
 11 31  1  0  0  0
 12 11  1  0  0  0
 13 12  2  0  0  0
 14 12  1  0  0  0
 14 15  1  0  0  0
 15 21  1  0  0  0
 16 15  2  0  0  0
 16 17  1  0  0  0
 17 18  2  0  0  0
 18 19  1  0  0  0
 18 20  1  0  0  0
 20 27  1  0  0  0
 21 20  2  0  0  0
 21 29  1  0  0  0
 22 16  1  0  0  0
 25 17  1  0  0  0
 26  7  1  0  0  0
 28  9  1  0  0  0
 32 14  1  0  0  0
M  END
$$$$
