WXV
  CCTOOLS-0919241033

 52 55  0  0  0  0  0  0  0  0999 V2000
   -3.0580   -2.5040    0.1440 C   0  0  0  0  0
   -4.2810   -1.9300    0.0280 C   0  0  0  0  0
   -3.2890    0.2980    0.0720 C   0  0  0  0  0
   -4.4150   -0.5330   -0.0100 C   0  0  0  0  0
   -5.5450    0.3950   -0.1250 C   0  0  0  0  0
   -5.0320    1.6080   -0.1030 N   0  0  0  0  0
   -3.7530    1.5810    0.0070 N   0  0  0  0  0
   -2.9010    2.7720    0.0590 C   0  0  0  0  0
   -6.9710    0.0410   -0.2420 C   0  0  0  0  0
   -7.3090   -1.1270   -0.2490 O   0  0  0  0  0
   -1.9030   -1.7020    0.2280 C   0  0  0  0  0
   -2.0130   -0.2900    0.1930 C   0  0  0  0  0
   -0.9000    0.4460    0.2750 N   0  0  0  0  0
    0.2780   -0.1380    0.3870 C   0  0  0  0  0
    0.4180   -1.4610    0.4240 N   0  0  0  0  0
   -0.6220   -2.2660    0.3490 C   0  0  0  0  0
    1.4090    0.6540    0.4700 N   0  0  0  0  0
   -7.9010    1.0120   -0.3400 N   0  0  0  0  0
    2.7300    0.0340    0.5960 C   0  0  0  0  0
    3.6910    1.0140    1.2720 C   0  0  0  0  0
    5.0620    0.3500    1.4330 C   0  0  0  0  0
    5.5130   -0.1280    0.1190 N   0  0  0  0  0
    4.6260   -1.0040   -0.6570 C   0  0  0  0  0
    3.2590   -0.3240   -0.7950 C   0  0  0  0  0
    6.9950    0.3140   -0.4760 S   0  0  0  0  0
    8.1240   -0.9740    0.1220 C   0  0  0  0  0
    6.8450    0.2290   -1.8870 O   0  0  0  0  0
    7.2720    1.5540    0.1590 O   0  0  0  0  0
   -9.3180    0.6610   -0.4560 C   0  0  0  0  0
   -2.9690   -3.5800    0.1760 H   0  0  0  0  0
   -5.1610   -2.5530   -0.0360 H   0  0  0  0  0
   -2.6020    3.0480   -0.9520 H   0  0  0  0  0
   -3.4550    3.5950    0.5120 H   0  0  0  0  0
   -2.0150    2.5590    0.6560 H   0  0  0  0  0
   -7.6310    1.9440   -0.3340 H   0  0  0  0  0
   -0.4920   -3.3380    0.3800 H   0  0  0  0  0
    1.3270    1.6200    0.4450 H   0  0  0  0  0
    2.6510   -0.8710    1.1980 H   0  0  0  0  0
   -9.6240    0.0910    0.4220 H   0  0  0  0  0
   -9.9140    1.5710   -0.5250 H   0  0  0  0  0
   -9.4710    0.0580   -1.3520 H   0  0  0  0  0
    3.7900    1.9090    0.6580 H   0  0  0  0  0
    3.3020    1.2870    2.2530 H   0  0  0  0  0
    2.5630   -1.0040   -1.2850 H   0  0  0  0  0
    3.3630    0.5830   -1.3900 H   0  0  0  0  0
    5.7760    1.0750    1.8230 H   0  0  0  0  0
    4.9820   -0.4920    2.1200 H   0  0  0  0  0
    5.0510   -1.1720   -1.6460 H   0  0  0  0  0
    4.5090   -1.9570   -0.1410 H   0  0  0  0  0
    7.8050   -1.9430   -0.2600 H   0  0  0  0  0
    9.1350   -0.7610   -0.2270 H   0  0  0  0  0
    8.1120   -0.9900    1.2120 H   0  0  0  0  0
  1  2  1  0  0  0
  1 11  2  0  0  0
  1 30  1  0  0  0
  2  4  2  0  0  0
  2 31  1  0  0  0
  3  4  1  0  0  0
  3  7  1  0  0  0
  3 12  2  0  0  0
  4  5  1  0  0  0
  5  6  2  0  0  0
  5  9  1  0  0  0
  6  7  1  0  0  0
  7  8  1  0  0  0
  8 32  1  0  0  0
  8 33  1  0  0  0
  8 34  1  0  0  0
  9 10  2  0  0  0
  9 18  1  0  0  0
 11 12  1  0  0  0
 11 16  1  0  0  0
 12 13  1  0  0  0
 13 14  2  0  0  0
 14 15  1  0  0  0
 14 17  1  0  0  0
 15 16  2  0  0  0
 16 36  1  0  0  0
 17 19  1  0  0  0
 17 37  1  0  0  0
 18 29  1  0  0  0
 18 35  1  0  0  0
 19 20  1  0  0  0
 19 24  1  0  0  0
 19 38  1  0  0  0
 20 21  1  0  0  0
 20 42  1  0  0  0
 20 43  1  0  0  0
 21 22  1  0  0  0
 21 46  1  0  0  0
 21 47  1  0  0  0
 22 23  1  0  0  0
 22 25  1  0  0  0
 23 24  1  0  0  0
 23 48  1  0  0  0
 23 49  1  0  0  0
 24 44  1  0  0  0
 24 45  1  0  0  0
 25 26  1  0  0  0
 25 27  2  0  0  0
 25 28  2  0  0  0
 26 50  1  0  0  0
 26 51  1  0  0  0
 26 52  1  0  0  0
 29 39  1  0  0  0
 29 40  1  0  0  0
 29 41  1  0  0  0
M  END
$$$$
