X0J
  CCTOOLS-0919241033

101106  0  0  1  0  0  0  0  0999 V2000
  -12.4990   -1.8000    2.0030 C   0  0  0  0  0
   -7.4540    0.5410   -1.9700 N   0  0  0  0  0
    0.6360    1.2760    1.9860 O   0  0  0  0  0
    2.1870    3.5260    1.3310 S   0  0  0  0  0
  -12.7950   -2.8730    2.8180 C   0  0  0  0  0
   -4.7100    0.2750   -1.2570 N   0  0  0  0  0
    1.9860    3.4900    2.7370 O   0  0  0  0  0
    9.2790   -0.4660    0.1930 S   0  0  0  0  0
  -12.0740   -4.0490    2.7070 C   0  0  0  0  0
    0.7610    3.0410    0.6430 N   0  0  0  0  0
    2.5910    4.6960    0.6330 O   0  0  0  0  0
  -11.0540   -4.1550    1.7800 C   0  0  0  0  0
    4.7020   -0.8800    2.4810 N   0  3  0  0  0
    4.9310   -1.9930    2.0420 O   0  5  0  0  0
  -10.7490   -3.0880    0.9590 C   0  0  0  0  0
    6.2270   -0.6320    0.1090 N   0  0  0  0  0
    4.6310   -0.7030    3.6840 O   0  0  0  0  0
  -11.4720   -1.9020    1.0660 C   0  0  0  0  0
    3.9530   -1.2760   -3.4550 N   0  0  0  0  0
  -11.1500   -0.7510    0.1860 C   0  0  0  0  0
  -11.8730    0.4350    0.2940 C   0  0  0  0  0
  -11.5690    1.5020   -0.5280 C   0  0  0  0  0
  -10.5490    1.3950   -1.4560 C   0  0  0  0  0
   -9.8280    0.2200   -1.5670 C   0  0  0  0  0
  -10.1190   -0.8510   -0.7460 C   0  0  0  0  0
   -8.7190    0.1110   -2.5810 C   0  0  0  0  0
   -6.3990    0.6750   -2.9850 C   0  0  0  0  0
   -5.1220    1.2000   -2.3230 C   0  0  0  0  0
   -5.7650    0.1410   -0.2430 C   0  0  0  0  0
   -7.0420   -0.3840   -0.9050 C   0  0  0  0  0
   -3.5130    0.6830   -0.6800 C   0  0  0  0  0
   -2.9510   -0.0620    0.3530 C   0  0  0  0  0
   -1.7660    0.3380    0.9270 C   0  0  0  0  0
   -1.1260    1.4940    0.4710 C   0  0  0  0  0
   -1.6920    2.2400   -0.5670 C   0  0  0  0  0
   -2.8750    1.8320   -1.1400 C   0  0  0  0  0
    0.1450    1.9260    1.0840 C   0  0  0  0  0
    3.3880    2.2900    0.9670 C   0  0  0  0  0
    4.1480    2.3840   -0.1840 C   0  0  0  0  0
    5.0910    1.4160   -0.4720 C   0  0  0  0  0
    5.2750    0.3480    0.3970 C   0  0  0  0  0
    4.5090    0.2560    1.5530 C   0  0  0  0  0
    3.5720    1.2300    1.8370 C   0  0  0  0  0
    6.9200   -0.6240   -1.1820 C   0  0  0  0  0
    6.0680   -1.3530   -2.2230 C   0  0  0  0  0
    4.7710   -0.5760   -2.4550 C   0  0  0  0  0
    2.6050   -0.6970   -3.5320 C   0  0  0  0  0
    4.6060   -1.2660   -4.7700 C   0  0  0  0  0
    8.2690   -1.3310   -1.0410 C   0  0  0  0  0
   10.7680   -1.4080    0.2170 C   0  0  0  0  0
   11.8090   -1.0440    1.0620 C   0  0  0  0  0
   12.9740   -1.7840    1.0790 C   0  0  0  0  0
   13.1070   -2.8870    0.2550 C   0  0  0  0  0
   12.0730   -3.2520   -0.5890 C   0  0  0  0  0
   10.9020   -2.5200   -0.6050 C   0  0  0  0  0
  -13.0650   -0.8840    2.0870 H   0  0  0  0  0
  -13.5910   -2.7950    3.5440 H   0  0  0  0  0
  -12.3090   -4.8860    3.3480 H   0  0  0  0  0
    0.3680    3.5590   -0.0770 H   0  0  0  0  0
  -10.4940   -5.0750    1.6980 H   0  0  0  0  0
   -9.9520   -3.1720    0.2360 H   0  0  0  0  0
    6.4290   -1.3190    0.7630 H   0  0  0  0  0
  -12.6700    0.5190    1.0170 H   0  0  0  0  0
  -12.1280    2.4220   -0.4450 H   0  0  0  0  0
  -10.3140    2.2330   -2.0960 H   0  0  0  0  0
   -9.5530   -1.7670   -0.8300 H   0  0  0  0  0
   -8.9440    0.7470   -3.4360 H   0  0  0  0  0
   -8.6290   -0.9240   -2.9110 H   0  0  0  0  0
   -6.2010   -0.2980   -3.4350 H   0  0  0  0  0
   -6.7220    1.3740   -3.7560 H   0  0  0  0  0
   -5.3120    2.1850   -1.8960 H   0  0  0  0  0
   -4.3300    1.2730   -3.0680 H   0  0  0  0  0
   -5.4420   -0.5580    0.5280 H   0  0  0  0  0
   -5.9630    1.1140    0.2070 H   0  0  0  0  0
   -7.8340   -0.4570   -0.1600 H   0  0  0  0  0
   -6.8510   -1.3680   -1.3320 H   0  0  0  0  0
   -3.4460   -0.9550    0.7050 H   0  0  0  0  0
   -1.3310   -0.2410    1.7280 H   0  0  0  0  0
   -1.2010    3.1340   -0.9210 H   0  0  0  0  0
   -3.3110    2.4060   -1.9440 H   0  0  0  0  0
    4.0050    3.2150   -0.8590 H   0  0  0  0  0
    5.6840    1.4900   -1.3710 H   0  0  0  0  0
    2.9800    1.1620    2.7380 H   0  0  0  0  0
    7.0810    0.4060   -1.5010 H   0  0  0  0  0
    6.6210   -1.4240   -3.1600 H   0  0  0  0  0
    5.8330   -2.3540   -1.8630 H   0  0  0  0  0
    5.0060    0.4250   -2.8150 H   0  0  0  0  0
    4.2170   -0.5050   -1.5180 H   0  0  0  0  0
    2.6770    0.3540   -3.8120 H   0  0  0  0  0
    2.0210   -1.2340   -4.2790 H   0  0  0  0  0
    2.1180   -0.7810   -2.5600 H   0  0  0  0  0
    5.5730   -1.7630   -4.7000 H   0  0  0  0  0
    3.9800   -1.7910   -5.4910 H   0  0  0  0  0
    4.7500   -0.2360   -5.0960 H   0  0  0  0  0
    8.7850   -1.3240   -2.0020 H   0  0  0  0  0
    8.1080   -2.3610   -0.7230 H   0  0  0  0  0
   11.7070   -0.1820    1.7060 H   0  0  0  0  0
   13.7840   -1.5020    1.7350 H   0  0  0  0  0
   14.0190   -3.4640    0.2690 H   0  0  0  0  0
   12.1800   -4.1140   -1.2310 H   0  0  0  0  0
   10.0930   -2.8090   -1.2600 H   0  0  0  0  0
  1  5  2  0  0  0
  1 18  1  0  0  0
  1 56  1  0  0  0
  2 26  1  0  0  0
  2 27  1  0  0  0
  2 30  1  0  0  0
  3 37  2  0  0  0
  4  7  2  0  0  0
  4 10  1  0  0  0
  4 11  2  0  0  0
  4 38  1  0  0  0
  5  9  1  0  0  0
  5 57  1  0  0  0
  6 28  1  0  0  0
  6 29  1  0  0  0
  6 31  1  0  0  0
  8 49  1  0  0  0
  8 50  1  0  0  0
  9 12  2  0  0  0
  9 58  1  0  0  0
 10 37  1  0  0  0
 10 59  1  0  0  0
 12 15  1  0  0  0
 12 60  1  0  0  0
 13 14  1  0  0  0
 13 17  2  0  0  0
 13 42  1  0  0  0
 15 18  2  0  0  0
 15 61  1  0  0  0
 16 41  1  0  0  0
 16 44  1  0  0  0
 16 62  1  0  0  0
 18 20  1  0  0  0
 19 46  1  0  0  0
 19 47  1  0  0  0
 19 48  1  0  0  0
 20 21  2  0  0  0
 20 25  1  0  0  0
 21 22  1  0  0  0
 21 63  1  0  0  0
 22 23  2  0  0  0
 22 64  1  0  0  0
 23 24  1  0  0  0
 23 65  1  0  0  0
 24 25  2  0  0  0
 24 26  1  0  0  0
 25 66  1  0  0  0
 26 67  1  0  0  0
 26 68  1  0  0  0
 27 28  1  0  0  0
 27 69  1  0  0  0
 27 70  1  0  0  0
 28 71  1  0  0  0
 28 72  1  0  0  0
 29 30  1  0  0  0
 29 73  1  0  0  0
 29 74  1  0  0  0
 30 75  1  0  0  0
 30 76  1  0  0  0
 31 32  2  0  0  0
 31 36  1  0  0  0
 32 33  1  0  0  0
 32 77  1  0  0  0
 33 34  2  0  0  0
 33 78  1  0  0  0
 34 35  1  0  0  0
 34 37  1  0  0  0
 35 36  2  0  0  0
 35 79  1  0  0  0
 36 80  1  0  0  0
 38 39  2  0  0  0
 38 43  1  0  0  0
 39 40  1  0  0  0
 39 81  1  0  0  0
 40 41  2  0  0  0
 40 82  1  0  0  0
 41 42  1  0  0  0
 42 43  2  0  0  0
 43 83  1  0  0  0
 44 45  1  0  0  0
 44 49  1  0  0  0
 44 84  1  0  0  0
 45 46  1  0  0  0
 45 85  1  0  0  0
 45 86  1  0  0  0
 46 87  1  0  0  0
 46 88  1  0  0  0
 47 89  1  0  0  0
 47 90  1  0  0  0
 47 91  1  0  0  0
 48 92  1  0  0  0
 48 93  1  0  0  0
 48 94  1  0  0  0
 49 95  1  0  0  0
 49 96  1  0  0  0
 50 51  2  0  0  0
 50 55  1  0  0  0
 51 52  1  0  0  0
 51 97  1  0  0  0
 52 53  2  0  0  0
 52 98  1  0  0  0
 53 54  1  0  0  0
 53 99  1  0  0  0
 54 55  2  0  0  0
 54100  1  0  0  0
 55101  1  0  0  0
M  CHG  1  13   1
M  CHG  1  14  -1
M  END
$$$$
