X1N
  CCTOOLS-0919241033

 37 40  0  0  0  0  0  0  0  0999 V2000
    2.6790    1.5610    2.2070 O   0  5  0  0  0
    3.6840    1.5950    1.5190 N   0  3  0  0  0
    4.6280    2.2860    1.8550 O   0  0  0  0  0
    3.7590    0.7910    0.2780 C   0  0  0  0  0
    2.6970    0.0300   -0.0650 C   0  0  0  0  0
    4.9710    0.8590   -0.5240 C   0  0  0  0  0
    5.1020    0.1600   -1.6540 C   0  0  0  0  0
    3.9580   -0.7220   -2.1030 C   0  0  0  0  0
    2.7160   -0.7550   -1.2380 C   0  0  0  0  0
    1.6840   -1.4940   -1.5690 N   0  0  0  0  0
    0.6210   -1.5960   -0.7250 C   0  0  0  0  0
   -0.4250   -0.7890   -0.8950 N   0  0  0  0  0
   -1.4670   -0.8760   -0.0830 C   0  0  0  0  0
   -2.6450   -0.0010   -0.1940 C   0  0  0  0  0
   -3.1190    1.0750   -1.4900 S   0  0  0  0  0
   -4.5250    1.5140   -0.6210 C   0  0  0  0  0
   -5.5730    2.4800   -1.1110 C   0  0  0  0  0
   -4.5610    0.9010    0.5160 N   0  0  0  0  0
   -3.5690    0.0930    0.8120 C   0  0  0  0  0
   -3.3730   -0.6710    2.1100 C   0  0  0  0  0
   -2.6760   -1.9990    1.8300 C   0  0  0  0  0
   -1.4790   -1.8400    0.9380 C   0  0  0  0  0
   -0.3670   -2.6470    1.0850 C   0  0  0  0  0
    0.6480   -2.5040    0.2470 N   0  0  0  0  0
    1.8220    0.0220    0.5670 H   0  0  0  0  0
    5.7840    1.4910   -0.1980 H   0  0  0  0  0
    6.0090    0.2220   -2.2370 H   0  0  0  0  0
    3.6580   -0.3970   -3.0990 H   0  0  0  0  0
    4.3350   -1.7410   -2.1890 H   0  0  0  0  0
   -5.2940    2.8490   -2.0980 H   0  0  0  0  0
   -6.5350    1.9710   -1.1720 H   0  0  0  0  0
   -5.6480    3.3180   -0.4170 H   0  0  0  0  0
   -2.7630   -0.0780    2.7910 H   0  0  0  0  0
   -4.3440   -0.8620    2.5680 H   0  0  0  0  0
   -2.3550   -2.4350    2.7760 H   0  0  0  0  0
   -3.3840   -2.6760    1.3520 H   0  0  0  0  0
   -0.3280   -3.3870    1.8710 H   0  0  0  0  0
  1  2  1  0  0  0
  2  3  2  0  0  0
  2  4  1  0  0  0
  4  5  2  0  0  0
  4  6  1  0  0  0
  5  9  1  0  0  0
  5 25  1  0  0  0
  6  7  2  0  0  0
  6 26  1  0  0  0
  7  8  1  0  0  0
  7 27  1  0  0  0
  8  9  1  0  0  0
  8 28  1  0  0  0
  8 29  1  0  0  0
  9 10  2  0  0  0
 10 11  1  0  0  0
 11 12  1  0  0  0
 11 24  2  0  0  0
 12 13  2  0  0  0
 13 14  1  0  0  0
 13 22  1  0  0  0
 14 15  1  0  0  0
 14 19  2  0  0  0
 15 16  1  0  0  0
 16 17  1  0  0  0
 16 18  2  0  0  0
 17 30  1  0  0  0
 17 31  1  0  0  0
 17 32  1  0  0  0
 18 19  1  0  0  0
 19 20  1  0  0  0
 20 21  1  0  0  0
 20 33  1  0  0  0
 20 34  1  0  0  0
 21 22  1  0  0  0
 21 35  1  0  0  0
 21 36  1  0  0  0
 22 23  2  0  0  0
 23 24  1  0  0  0
 23 37  1  0  0  0
M  CHG  1   1  -1
M  CHG  1   2   1
M  END
$$$$
