XCX
  CCTOOLS-0919241035

 66 68  0  0  0  0  0  0  0  0999 V2000
   -1.3130    2.4800    0.1700 N   0  0  0  0  0
   -1.8190    0.2570   -0.5160 N   0  0  0  0  0
   -8.2940   -5.4600    0.7710 C   0  0  0  0  0
    7.9110   -1.6730    0.3320 C   0  0  0  0  0
    6.7120    0.0670   -1.0000 C   0  0  0  0  0
    5.0690   -0.6460    1.8890 O   0  0  0  0  0
    6.8700    0.6330    1.9380 O   0  0  0  0  0
   -2.5170    5.9740    0.6320 C   0  0  0  0  0
   -3.8060    5.7440    0.1760 C   0  0  0  0  0
    2.1180   -1.9110   -1.3660 C   0  0  0  0  0
    2.7530    0.2850   -0.6470 C   0  0  0  0  0
    3.3890   -2.3740   -1.0840 C   0  0  0  0  0
    4.0220   -0.1750   -0.3540 C   0  0  0  0  0
   -1.5980    4.9480    0.6700 C   0  0  0  0  0
   -4.1870    4.4840   -0.2400 C   0  0  0  0  0
   -7.2390   -4.5010    1.3250 C   0  0  0  0  0
   -6.4730   -3.8610    0.1650 C   0  0  0  0  0
   -5.4180   -2.9010    0.7190 C   0  0  0  0  0
   -4.6510   -2.2620   -0.4400 C   0  0  0  0  0
   -3.5960   -1.3020    0.1130 C   0  0  0  0  0
    0.4130   -0.0810   -1.4560 C   0  0  0  0  0
   -2.8300   -0.6620   -1.0460 C   0  0  0  0  0
   -0.4710   -0.2310   -0.2160 C   0  0  0  0  0
    5.5960   -1.9590   -0.2990 O   0  0  0  0  0
   -3.3390    2.1310   -0.5380 O   0  0  0  0  0
    6.1130   -0.3210    1.3740 C   0  0  0  0  0
    1.8000   -0.5830   -1.1480 C   0  0  0  0  0
    4.3450   -1.5060   -0.5770 C   0  0  0  0  0
   -2.1370    1.5780   -0.2990 C   0  0  0  0  0
   -1.9690    3.6700    0.2510 C   0  0  0  0  0
   -3.2760    3.4410   -0.2070 C   0  0  0  0  0
    6.5640   -0.9860    0.1000 C   0  0  0  0  0
   -8.9890   -4.9100    0.1360 H   0  0  0  0  0
   -7.8060   -6.2390    0.1850 H   0  0  0  0  0
   -8.8400   -5.9160    1.5970 H   0  0  0  0  0
    8.6620   -0.9240    0.5840 H   0  0  0  0  0
    7.8190   -2.3850    1.1520 H   0  0  0  0  0
    8.2120   -2.1990   -0.5740 H   0  0  0  0  0
    7.1590   -0.3900   -1.8830 H   0  0  0  0  0
    5.7300    0.4660   -1.2560 H   0  0  0  0  0
    7.3510    0.8760   -0.6460 H   0  0  0  0  0
    6.5390    1.0310    2.7550 H   0  0  0  0  0
   -2.2320    6.9640    0.9560 H   0  0  0  0  0
   -4.5190    6.5550    0.1510 H   0  0  0  0  0
    1.3730   -2.5860   -1.7600 H   0  0  0  0  0
    2.5010    1.3210   -0.4740 H   0  0  0  0  0
    3.6380   -3.4100   -1.2580 H   0  0  0  0  0
    4.7620    0.5000    0.0490 H   0  0  0  0  0
   -0.5940    5.1330    1.0230 H   0  0  0  0  0
   -5.1930    4.3110   -0.5930 H   0  0  0  0  0
   -7.7280   -3.7220    1.9110 H   0  0  0  0  0
   -6.5450   -5.0510    1.9590 H   0  0  0  0  0
   -5.9840   -4.6390   -0.4210 H   0  0  0  0  0
   -7.1670   -3.3100   -0.4690 H   0  0  0  0  0
   -5.9060   -2.1230    1.3050 H   0  0  0  0  0
   -4.7230   -3.4520    1.3540 H   0  0  0  0  0
   -4.1630   -3.0400   -1.0260 H   0  0  0  0  0
   -5.3460   -1.7110   -1.0750 H   0  0  0  0  0
   -4.0850   -0.5240    0.7000 H   0  0  0  0  0
   -2.9020   -1.8530    0.7480 H   0  0  0  0  0
   -0.0100   -0.6620   -2.2760 H   0  0  0  0  0
    0.4620    0.9690   -1.7420 H   0  0  0  0  0
   -3.5240   -0.1120   -1.6810 H   0  0  0  0  0
   -2.3410   -1.4410   -1.6320 H   0  0  0  0  0
   -0.0480    0.3490    0.6040 H   0  0  0  0  0
   -0.5200   -1.2820    0.0700 H   0  0  0  0  0
  1 29  2  0  0  0
  2 22  1  0  0  0
  2 23  1  0  0  0
  3 33  1  0  0  0
  3 34  1  0  0  0
  3 35  1  0  0  0
  4 32  1  0  0  0
  4 36  1  0  0  0
  4 37  1  0  0  0
  4 38  1  0  0  0
  5 32  1  0  0  0
  5 39  1  0  0  0
  5 40  1  0  0  0
  5 41  1  0  0  0
  7 42  1  0  0  0
  8 14  1  0  0  0
  8 43  1  0  0  0
  9  8  2  0  0  0
  9 15  1  0  0  0
  9 44  1  0  0  0
 10 12  1  0  0  0
 10 45  1  0  0  0
 11 13  2  0  0  0
 11 46  1  0  0  0
 12 28  2  0  0  0
 12 47  1  0  0  0
 13 28  1  0  0  0
 13 48  1  0  0  0
 14 30  2  0  0  0
 14 49  1  0  0  0
 15 31  2  0  0  0
 15 50  1  0  0  0
 16  3  1  0  0  0
 16 17  1  0  0  0
 16 51  1  0  0  0
 16 52  1  0  0  0
 17 53  1  0  0  0
 17 54  1  0  0  0
 18 17  1  0  0  0
 18 55  1  0  0  0
 18 56  1  0  0  0
 19 18  1  0  0  0
 19 57  1  0  0  0
 19 58  1  0  0  0
 20 19  1  0  0  0
 20 22  1  0  0  0
 20 59  1  0  0  0
 20 60  1  0  0  0
 21 27  1  0  0  0
 21 61  1  0  0  0
 21 62  1  0  0  0
 22 63  1  0  0  0
 22 64  1  0  0  0
 23 21  1  0  0  0
 23 65  1  0  0  0
 23 66  1  0  0  0
 24 32  1  0  0  0
 25 29  1  0  0  0
 26  6  2  0  0  0
 26  7  1  0  0  0
 27 10  2  0  0  0
 27 11  1  0  0  0
 28 24  1  0  0  0
 29  2  1  0  0  0
 30  1  1  0  0  0
 31 25  1  0  0  0
 31 30  1  0  0  0
 32 26  1  0  0  0
M  END
$$$$
