XDH
  CCTOOLS-0919241035

 33 34  0  0  0  0  0  0  0  0999 V2000
    0.1500    1.3580    2.7140 C   0  0  0  0  0
   -0.1340   -1.1220    2.8230 C   0  0  0  0  0
   -4.5690    0.4560   -1.3810 O   0  0  0  0  0
    4.5750   -0.5930   -1.3420 O   0  0  0  0  0
   -4.7140   -1.7120    0.6240 CL  0  0  0  0  0
   -2.5020    2.4800   -1.9900 CL  0  0  0  0  0
    4.7610    1.6940    0.5210 CL  0  0  0  0  0
    2.4500   -2.5810   -1.8600 CL  0  0  0  0  0
   -2.2680   -0.7000    1.1930 C   0  0  0  0  0
   -1.2890    1.1550    0.0350 C   0  0  0  0  0
    2.2960    0.7690    1.1490 C   0  0  0  0  0
    1.2760   -1.1290    0.1000 C   0  0  0  0  0
   -3.4640    0.3640   -0.5930 C   0  0  0  0  0
    3.4730   -0.4320   -0.5620 C   0  0  0  0  0
   -3.3930   -0.6090    0.3940 C   0  0  0  0  0
   -2.4110    1.2510   -0.7670 C   0  0  0  0  0
    3.4190    0.6050    0.3600 C   0  0  0  0  0
    2.3940   -1.2950   -0.6950 C   0  0  0  0  0
   -1.2180    0.1810    1.0130 C   0  0  0  0  0
    1.2270   -0.0990    1.0210 C   0  0  0  0  0
    0.0060    0.0790    1.8860 C   0  0  0  0  0
    1.0350    1.2850    3.3450 H   0  0  0  0  0
    0.2500    2.2140    2.0460 H   0  0  0  0  0
   -0.7330    1.4870    3.3400 H   0  0  0  0  0
   -1.0170   -0.9930    3.4500 H   0  0  0  0  0
   -0.2360   -2.0330    2.2340 H   0  0  0  0  0
    0.7520   -1.1950    3.4550 H   0  0  0  0  0
   -5.2540    1.0410   -1.0310 H   0  0  0  0  0
    4.5400   -0.1040   -2.1760 H   0  0  0  0  0
   -2.2120   -1.4570    1.9610 H   0  0  0  0  0
   -0.4690    1.8450   -0.1000 H   0  0  0  0  0
    2.2550    1.5720    1.8690 H   0  0  0  0  0
    0.4400   -1.8060    0.0030 H   0  0  0  0  0
  1 21  1  0  0  0
  1 22  1  0  0  0
  1 23  1  0  0  0
  1 24  1  0  0  0
  2 21  1  0  0  0
  2 25  1  0  0  0
  2 26  1  0  0  0
  2 27  1  0  0  0
  3 28  1  0  0  0
  4 14  1  0  0  0
  4 29  1  0  0  0
  7 17  1  0  0  0
  8 18  1  0  0  0
  9 15  1  0  0  0
  9 30  1  0  0  0
 10 16  2  0  0  0
 10 31  1  0  0  0
 11 20  1  0  0  0
 11 32  1  0  0  0
 12 20  2  0  0  0
 12 33  1  0  0  0
 13  3  1  0  0  0
 14 18  2  0  0  0
 14 17  1  0  0  0
 15  5  1  0  0  0
 15 13  2  0  0  0
 16  6  1  0  0  0
 16 13  1  0  0  0
 17 11  2  0  0  0
 18 12  1  0  0  0
 19  9  2  0  0  0
 19 10  1  0  0  0
 20 21  1  0  0  0
 21 19  1  0  0  0
M  END
$$$$
