XFW
  CCTOOLS-1004241123

 23 22  0  0  1  0  0  0  0  0999 V2000
    2.3800    0.2310    0.0060 C   0  0  0  0  0
    2.9650   -0.3200    0.9080 O   0  0  0  0  0
    1.1200   -0.3750   -0.5570 C   0  0  0  0  0
   -0.0970    0.3330    0.0410 C   0  0  0  0  0
   -1.3710   -0.1950   -0.6220 C   0  0  0  0  0
   -2.5880    0.5130   -0.0250 C   0  0  0  0  0
   -3.8110    0.0050   -0.6610 N   0  0  0  0  0
   -2.6450    0.2540    1.4200 N   0  0  0  0  0
    1.0710   -1.8030   -0.2190 N   0  0  0  0  0
    1.1130   -0.2570   -1.6410 H   0  0  0  0  0
   -0.1390    0.1420    1.1130 H   0  0  0  0  0
   -0.0150    1.4060   -0.1340 H   0  0  0  0  0
   -1.3290   -0.0040   -1.6940 H   0  0  0  0  0
   -1.4520   -1.2680   -0.4480 H   0  0  0  0  0
   -2.5070    1.5860   -0.1990 H   0  0  0  0  0
   -3.8770   -0.9980   -0.5690 H   0  0  0  0  0
   -4.6300    0.4570   -0.2830 H   0  0  0  0  0
   -2.7210   -0.7340    1.6080 H   0  0  0  0  0
   -1.8450    0.6510    1.8900 H   0  0  0  0  0
    1.8300   -2.3050   -0.6560 H   0  0  0  0  0
    2.8500    1.3870   -0.4910 O   0  0  0  0  0
    3.6610    1.7360   -0.0980 H   0  0  0  0  0
    1.0760   -1.9390    0.7810 H   0  0  0  0  0
  1  3  1  0  0  0
  1 21  1  0  0  0
  2  1  2  0  0  0
  3  4  1  0  0  0
  3  9  1  0  0  0
  3 10  1  0  0  0
  4 11  1  0  0  0
  4 12  1  0  0  0
  5  4  1  0  0  0
  5 13  1  0  0  0
  5 14  1  0  0  0
  6  7  1  0  0  0
  6  5  1  0  0  0
  6 15  1  0  0  0
  7 16  1  0  0  0
  7 17  1  0  0  0
  8  6  1  0  0  0
  8 18  1  0  0  0
  8 19  1  0  0  0
  9 20  1  0  0  0
  9 23  1  0  0  0
 21 22  1  0  0  0
M  END
$$$$
