XSN
  CCTOOLS-1004241124

 17 16  0  0  1  0  0  0  0  0999 V2000
    1.8880   -0.1960    0.0290 C   0  0  0  0  0
    0.3480    1.6820   -0.0430 N   0  0  0  0  0
    2.5590    0.4050   -0.7830 O   0  0  0  0  0
    0.4930    0.2740    0.3490 C   0  0  0  0  0
   -0.5200   -0.5760   -0.4210 C   0  0  0  0  0
   -1.9170   -0.1890   -0.0090 C   0  0  0  0  0
   -2.9750   -0.8070   -0.5580 O   0  0  0  0  0
   -2.0850    0.6780    0.8160 O   0  0  0  0  0
    2.3890   -1.2870    0.6410 N   0  0  0  0  0
    0.9620    2.2730    0.4980 H   0  0  0  0  0
    0.5110    1.8010   -1.0320 H   0  0  0  0  0
    0.3120    0.1740    1.4190 H   0  0  0  0  0
   -0.3970   -0.4080   -1.4910 H   0  0  0  0  0
   -0.3550   -1.6300   -0.1980 H   0  0  0  0  0
   -3.8510   -0.5240   -0.2620 H   0  0  0  0  0
    3.2860   -1.5920    0.4330 H   0  0  0  0  0
    1.8520   -1.7680    1.2910 H   0  0  0  0  0
  1  9  1  0  0  0
  2  4  1  0  0  0
  2 10  1  0  0  0
  2 11  1  0  0  0
  3  1  2  0  0  0
  4  1  1  0  0  0
  4  5  1  0  0  0
  4 12  1  0  0  0
  5 13  1  0  0  0
  5 14  1  0  0  0
  6  5  1  0  0  0
  6  7  1  0  0  0
  7 15  1  0  0  0
  8  6  2  0  0  0
  9 16  1  0  0  0
  9 17  1  0  0  0
M  END
$$$$
