XX6
  CCTOOLS-0919241037

 48 50  0  0  1  0  0  0  0  0999 V2000
    7.3040   -0.8200   -0.0340 O   0  0  0  0  0
    6.8750    0.1940    0.8770 C   0  0  0  0  0
    5.6110    0.8640    0.3360 C   0  0  0  0  0
    5.8760    1.3860   -1.0780 C   0  0  0  0  0
    6.3500    0.3170   -1.8990 O   0  0  0  0  0
    4.5150   -0.1140    0.2990 N   0  0  0  0  0
    3.2100    0.5560    0.3700 C   0  0  0  0  0
    2.0960   -0.4930    0.3300 C   0  0  0  0  0
    2.1670   -1.3080    1.5010 O   0  0  0  0  0
    0.7370    0.2080    0.2770 C   0  0  0  0  0
   -0.2960   -0.7670    0.1220 O   0  0  0  0  0
   -1.5720   -0.3080    0.0580 C   0  0  0  0  0
   -2.6750   -1.2540   -0.1000 C   0  0  0  0  0
   -2.4430   -2.6320   -0.1880 C   0  0  0  0  0
   -3.4970   -3.4870   -0.3350 C   0  0  0  0  0
   -4.8000   -3.0080   -0.4000 C   0  0  0  0  0
   -5.0580   -1.6690   -0.3180 C   0  0  0  0  0
   -4.0000   -0.7700   -0.1660 C   0  0  0  0  0
   -4.2300    0.6750   -0.0740 C   0  0  0  0  0
   -5.5220    1.2050   -0.1350 C   0  0  0  0  0
   -5.7060    2.5550   -0.0470 C   0  0  0  0  0
   -4.6210    3.4110    0.1030 C   0  0  0  0  0
   -3.3490    2.9250    0.1660 C   0  0  0  0  0
   -3.1250    1.5420    0.0790 C   0  0  0  0  0
   -1.8130    1.0220    0.1460 C   0  0  0  0  0
    8.1020   -1.2880    0.2460 H   0  0  0  0  0
    6.6610   -0.2550    1.8470 H   0  0  0  0  0
    7.6630    0.9400    0.9880 H   0  0  0  0  0
    5.3340    1.6960    0.9840 H   0  0  0  0  0
    4.9520    1.7840   -1.4970 H   0  0  0  0  0
    6.6270    2.1750   -1.0390 H   0  0  0  0  0
    4.6130   -0.7940    1.0380 H   0  0  0  0  0
    6.5390    0.5760   -2.8110 H   0  0  0  0  0
    3.1410    1.1230    1.2980 H   0  0  0  0  0
    3.1020    1.2320   -0.4780 H   0  0  0  0  0
    2.2170   -1.1180   -0.5550 H   0  0  0  0  0
    2.0670   -0.8170    2.3290 H   0  0  0  0  0
    0.5780    0.7620    1.2020 H   0  0  0  0  0
    0.7160    0.8970   -0.5670 H   0  0  0  0  0
   -0.9820    1.7020    0.2670 H   0  0  0  0  0
   -1.4350   -3.0160   -0.1390 H   0  0  0  0  0
   -3.3150   -4.5490   -0.4030 H   0  0  0  0  0
   -5.6180   -3.7030   -0.5170 H   0  0  0  0  0
   -6.0740   -1.3080   -0.3700 H   0  0  0  0  0
   -6.3710    0.5490   -0.2520 H   0  0  0  0  0
   -6.7050    2.9620   -0.0950 H   0  0  0  0  0
   -4.7880    4.4760    0.1700 H   0  0  0  0  0
   -2.5160    3.6020    0.2820 H   0  0  0  0  0
  1  2  1  0  0  0
  1 26  1  0  0  0
  2  3  1  0  0  0
  2 27  1  0  0  0
  2 28  1  0  0  0
  3  4  1  0  0  0
  3  6  1  0  0  0
  3 29  1  0  0  0
  4  5  1  0  0  0
  4 30  1  0  0  0
  4 31  1  0  0  0
  5 33  1  0  0  0
  6  7  1  0  0  0
  6 32  1  0  0  0
  7  8  1  0  0  0
  7 34  1  0  0  0
  7 35  1  0  0  0
  8  9  1  0  0  0
  8 10  1  0  0  0
  8 36  1  0  0  0
  9 37  1  0  0  0
 10 11  1  0  0  0
 10 38  1  0  0  0
 10 39  1  0  0  0
 11 12  1  0  0  0
 12 13  1  0  0  0
 12 25  2  0  0  0
 13 14  1  0  0  0
 13 18  2  0  0  0
 14 15  2  0  0  0
 14 41  1  0  0  0
 15 16  1  0  0  0
 15 42  1  0  0  0
 16 17  2  0  0  0
 16 43  1  0  0  0
 17 18  1  0  0  0
 17 44  1  0  0  0
 18 19  1  0  0  0
 19 20  1  0  0  0
 19 24  2  0  0  0
 20 45  1  0  0  0
 20 21  2  0  0  0
 21 46  1  0  0  0
 21 22  1  0  0  0
 22 47  1  0  0  0
 22 23  2  0  0  0
 23 48  1  0  0  0
 23 24  1  0  0  0
 24 25  1  0  0  0
 25 40  1  0  0  0
M  END
$$$$
