XX7
  CCTOOLS-0919241037

 48 50  0  0  1  0  0  0  0  0999 V2000
    6.4420   -0.1900   -1.8360 O   0  0  0  0  0
    5.9310   -1.3140   -1.1170 C   0  0  0  0  0
    5.6040   -0.8960    0.3180 C   0  0  0  0  0
    6.8430   -0.2720    0.9620 C   0  0  0  0  0
    7.3120    0.8040    0.1480 O   0  0  0  0  0
    4.5110    0.0860    0.3050 N   0  0  0  0  0
    3.2030   -0.5820    0.2680 C   0  0  0  0  0
    2.1850    1.2750    1.4340 O   0  0  0  0  0
    0.7310   -0.2240    0.2170 C   0  0  0  0  0
   -0.3010    0.7560    0.0880 O   0  0  0  0  0
   -1.5800    0.3020    0.0390 C   0  0  0  0  0
   -2.6810    1.2540   -0.0930 C   0  0  0  0  0
   -2.4450    2.6320   -0.1690 C   0  0  0  0  0
   -3.4980    3.4920   -0.2920 C   0  0  0  0  0
   -4.8040    3.0190   -0.3410 C   0  0  0  0  0
   -5.0650    1.6800   -0.2690 C   0  0  0  0  0
   -4.0090    0.7750   -0.1440 C   0  0  0  0  0
   -4.2430   -0.6700   -0.0620 C   0  0  0  0  0
   -5.5370   -1.1940   -0.1070 C   0  0  0  0  0
   -5.7250   -2.5440   -0.0280 C   0  0  0  0  0
   -4.6420   -3.4060    0.0970 C   0  0  0  0  0
   -3.3670   -2.9250    0.1430 C   0  0  0  0  0
   -3.1390   -1.5420    0.0640 C   0  0  0  0  0
   -1.8230   -1.0280    0.1060 C   0  0  0  0  0
    2.0930    0.4710    0.2550 C   0  0  0  0  0
    6.6710   -0.3820   -2.7560 H   0  0  0  0  0
    5.0260   -1.6770   -1.6050 H   0  0  0  0  0
    6.6790   -2.1070   -1.1030 H   0  0  0  0  0
    5.2980   -1.7720    0.8910 H   0  0  0  0  0
    6.5870    0.1060    1.9520 H   0  0  0  0  0
    7.6240   -1.0270    1.0530 H   0  0  0  0  0
    4.6110    0.7280   -0.4670 H   0  0  0  0  0
    8.0980    1.2480    0.4970 H   0  0  0  0  0
    3.1330   -1.1940   -0.6310 H   0  0  0  0  0
    3.0940   -1.2150    1.1490 H   0  0  0  0  0
    2.2030    1.1040   -0.6250 H   0  0  0  0  0
    2.0960    0.7760    2.2570 H   0  0  0  0  0
    0.5840   -0.7870    1.1390 H   0  0  0  0  0
    0.6940   -0.9050   -0.6340 H   0  0  0  0  0
   -0.9920   -1.7130    0.1990 H   0  0  0  0  0
   -1.4350    3.0120   -0.1320 H   0  0  0  0  0
   -3.3140    4.5540   -0.3500 H   0  0  0  0  0
   -5.6210    3.7180   -0.4380 H   0  0  0  0  0
   -6.0840    1.3230   -0.3080 H   0  0  0  0  0
   -6.3860   -0.5340   -0.2030 H   0  0  0  0  0
   -6.7270   -2.9470   -0.0620 H   0  0  0  0  0
   -4.8120   -4.4710    0.1580 H   0  0  0  0  0
   -2.5340   -3.6060    0.2400 H   0  0  0  0  0
  1  2  1  0  0  0
  1 26  1  0  0  0
  2  3  1  0  0  0
  2 27  1  0  0  0
  2 28  1  0  0  0
  3  4  1  0  0  0
  3  6  1  0  0  0
  3 29  1  0  0  0
  4  5  1  0  0  0
  4 30  1  0  0  0
  4 31  1  0  0  0
  5 33  1  0  0  0
  6  7  1  0  0  0
  6 32  1  0  0  0
  7 25  1  0  0  0
  7 34  1  0  0  0
  7 35  1  0  0  0
  8 25  1  0  0  0
  8 37  1  0  0  0
  9 10  1  0  0  0
  9 25  1  0  0  0
  9 38  1  0  0  0
  9 39  1  0  0  0
 10 11  1  0  0  0
 11 12  1  0  0  0
 11 24  2  0  0  0
 12 13  1  0  0  0
 12 17  2  0  0  0
 13 14  2  0  0  0
 13 41  1  0  0  0
 14 15  1  0  0  0
 14 42  1  0  0  0
 15 16  2  0  0  0
 15 43  1  0  0  0
 16 17  1  0  0  0
 16 44  1  0  0  0
 17 18  1  0  0  0
 18 19  1  0  0  0
 18 23  2  0  0  0
 19 20  2  0  0  0
 19 45  1  0  0  0
 20 21  1  0  0  0
 20 46  1  0  0  0
 21 22  2  0  0  0
 21 47  1  0  0  0
 22 23  1  0  0  0
 22 48  1  0  0  0
 23 24  1  0  0  0
 24 40  1  0  0  0
 25 36  1  0  0  0
M  END
$$$$
