XY1
  CCTOOLS-1004241125

 36 37  0  0  0  0  0  0  0  0999 V2000
   -5.7820   -0.4500    0.0800 C   0  0  0  0  0
   -6.3520   -1.5140   -0.0540 O   0  0  0  0  0
   -4.3080   -0.3890    0.0110 C   0  0  0  0  0
   -3.5700   -1.5560   -0.2090 C   0  0  0  0  0
   -2.2010   -1.4990   -0.2730 C   0  0  0  0  0
   -3.6520    0.8360    0.1590 C   0  0  0  0  0
   -2.2840    0.8940    0.0950 C   0  0  0  0  0
   -1.5440   -0.2740   -0.1190 C   0  0  0  0  0
   -0.1810   -0.2180   -0.1830 N   0  0  0  0  0
    0.4260    0.9120   -0.0410 N   0  0  0  0  0
    1.7860    0.9690   -0.1040 C   0  0  0  0  0
    2.4500    2.1960    0.0490 C   0  0  0  0  0
    1.7410    3.3330    0.2620 O   0  0  0  0  0
    3.8330    2.2410   -0.0160 C   0  0  0  0  0
    4.5550    1.0820   -0.2320 C   0  0  0  0  0
    2.5290   -0.1970   -0.3170 C   0  0  0  0  0
    3.9040   -0.1310   -0.3850 C   0  0  0  0  0
    4.7040   -1.3870   -0.6210 C   0  0  0  0  0
    5.0500   -2.0310    0.7230 C   0  0  0  0  0
    5.8290   -3.2540    0.4940 N   0  0  0  0  0
   -6.4940    0.6750    0.2860 O   0  0  0  0  0
   -7.4560    0.5860    0.3200 H   0  0  0  0  0
   -4.0780   -2.5010   -0.3270 H   0  0  0  0  0
   -4.2230    1.7380    0.3250 H   0  0  0  0  0
   -1.6310   -2.4010   -0.4420 H   0  0  0  0  0
   -1.7770    1.8400    0.2100 H   0  0  0  0  0
    2.0270   -1.1460   -0.4320 H   0  0  0  0  0
    1.5810    3.5290    1.1960 H   0  0  0  0  0
    4.3480    3.1830    0.1010 H   0  0  0  0  0
    5.6330    1.1230   -0.2830 H   0  0  0  0  0
    4.1170   -2.0840   -1.2180 H   0  0  0  0  0
    5.6230   -1.1380   -1.1510 H   0  0  0  0  0
    5.6360   -1.3330    1.3210 H   0  0  0  0  0
    4.1310   -2.2800    1.2540 H   0  0  0  0  0
    6.6550   -3.0600   -0.0530 H   0  0  0  0  0
    6.0700   -3.6990    1.3670 H   0  0  0  0  0
  1  2  2  0  0  0
  1  3  1  0  0  0
  1 21  1  0  0  0
  3  4  1  0  0  0
  3  6  2  0  0  0
  4  5  2  0  0  0
  4 23  1  0  0  0
  5  8  1  0  0  0
  5 25  1  0  0  0
  6  7  1  0  0  0
  6 24  1  0  0  0
  7  8  2  0  0  0
  7 26  1  0  0  0
  8  9  1  0  0  0
  9 10  2  0  0  0
 10 11  1  0  0  0
 11 12  1  0  0  0
 11 16  2  0  0  0
 12 13  1  0  0  0
 12 14  2  0  0  0
 13 28  1  0  0  0
 14 15  1  0  0  0
 14 29  1  0  0  0
 15 17  2  0  0  0
 15 30  1  0  0  0
 16 17  1  0  0  0
 16 27  1  0  0  0
 17 18  1  0  0  0
 18 19  1  0  0  0
 18 31  1  0  0  0
 18 32  1  0  0  0
 19 20  1  0  0  0
 19 33  1  0  0  0
 19 34  1  0  0  0
 20 35  1  0  0  0
 20 36  1  0  0  0
 21 22  1  0  0  0
M  END
$$$$
