XYP
  CCTOOLS-1004241125

 20 20  0  0  1  0  0  0  0  0999 V2000
    0.5010   -0.1300   -2.7460 O   0  0  0  0  0
    0.5090    0.2530   -1.3700 C   0  0  0  0  0
   -0.7800   -0.2280   -0.7010 C   0  0  0  0  0
   -0.7790    0.2130    0.7660 C   0  0  0  0  0
    0.5190   -0.2690    1.4230 C   0  0  0  0  0
    1.7100    0.2150    0.5930 C   0  0  0  0  0
   -1.9070    0.3370   -1.3720 O   0  0  0  0  0
   -1.9040   -0.3540    1.4390 O   0  0  0  0  0
    0.6110    0.2600    2.7470 O   0  0  0  0  0
    1.6370   -0.3310   -0.7210 O   0  0  0  0  0
    1.3250    0.1940   -3.1320 H   0  0  0  0  0
    0.5710    1.3380   -1.2970 H   0  0  0  0  0
   -0.8330   -1.3160   -0.7520 H   0  0  0  0  0
   -0.8310    1.3010    0.8200 H   0  0  0  0  0
    0.5230   -1.3580    1.4650 H   0  0  0  0  0
    1.6920    1.3030    0.5350 H   0  0  0  0  0
    2.6370   -0.1050    1.0680 H   0  0  0  0  0
   -1.8650    0.0370   -2.2910 H   0  0  0  0  0
   -1.8640   -0.0510    2.3560 H   0  0  0  0  0
    1.4410   -0.0640    3.1210 H   0  0  0  0  0
  1  2  1  0  0  0
  1 11  1  0  0  0
  2  3  1  0  0  0
  2 10  1  0  0  0
  2 12  1  0  0  0
  3  4  1  0  0  0
  3  7  1  0  0  0
  3 13  1  0  0  0
  4  5  1  0  0  0
  4  8  1  0  0  0
  4 14  1  0  0  0
  5  6  1  0  0  0
  5  9  1  0  0  0
  5 15  1  0  0  0
  6 10  1  0  0  0
  6 16  1  0  0  0
  6 17  1  0  0  0
  7 18  1  0  0  0
  8 19  1  0  0  0
  9 20  1  0  0  0
M  END
$$$$
