Y8L
  CCTOOLS-0919241038

 49 52  0  0  0  0  0  0  0  0999 V2000
   -6.2470   -0.3410    0.4510 C   0  0  0  0  0
   -6.6880   -1.7990    0.6180 C   0  0  0  0  0
   -6.7960   -2.4300   -0.7040 N   0  0  0  0  0
   -5.4940   -2.4730   -1.3820 C   0  0  0  0  0
   -5.0040   -1.0430   -1.6310 C   0  0  0  0  0
   -5.0160   -0.3150   -0.3530 N   0  0  0  0  0
   -3.8870    0.3840    0.0860 C   0  0  0  0  0
   -2.6410    0.2730   -0.6670 C   0  0  0  0  0
   -1.5120    0.9160   -0.3060 C   0  0  0  0  0
   -3.9740    1.1460    1.1860 C   0  0  0  0  0
   -2.7460    1.8970    1.6510 C   0  0  0  0  0
   -1.4790    1.7430    0.8370 C   0  0  0  0  0
   -0.3780    2.3660    1.1840 N   0  0  0  0  0
    0.7220    2.3020    0.3830 C   0  0  0  0  0
    1.5520    1.2720    0.5020 N   0  0  0  0  0
    0.9350    3.2710   -0.5030 N   0  0  0  0  0
    1.9920    3.2450   -1.3000 C   0  0  0  0  0
    2.8860    2.1950   -1.2060 C   0  0  0  0  0
    2.6360    1.1840   -0.2680 C   0  0  0  0  0
    3.5590    0.0400   -0.1340 C   0  0  0  0  0
    5.0430   -0.2610   -1.0560 S   0  0  0  0  0
    5.4150   -1.7380   -0.2520 C   0  0  0  0  0
    6.3740   -2.4610   -0.4560 O   0  0  0  0  0
    4.4360   -1.9300    0.6440 N   0  0  0  0  0
    4.4280   -3.1050    1.5190 C   0  0  0  0  0
    3.4580   -0.9960    0.7150 C   0  0  0  0  0
    2.3170   -1.1130    1.6920 C   0  0  0  0  0
   -7.0290    0.2220   -0.0590 H   0  0  0  0  0
   -6.0550    0.0980    1.4290 H   0  0  0  0  0
   -5.9530   -2.3350    1.2180 H   0  0  0  0  0
   -7.6570   -1.8310    1.1170 H   0  0  0  0  0
   -7.1980   -3.3530   -0.6330 H   0  0  0  0  0
   -4.7750   -3.0000   -0.7540 H   0  0  0  0  0
   -5.5960   -2.9940   -2.3340 H   0  0  0  0  0
   -3.9890   -1.0670   -2.0290 H   0  0  0  0  0
   -5.6660   -0.5480   -2.3410 H   0  0  0  0  0
   -2.6230   -0.3500   -1.5490 H   0  0  0  0  0
   -4.9040    1.2220    1.7310 H   0  0  0  0  0
   -0.6180    0.7960   -0.9010 H   0  0  0  0  0
   -2.9950    2.9570    1.6810 H   0  0  0  0  0
   -2.5280    1.5810    2.6710 H   0  0  0  0  0
    2.1540    4.0370   -2.0160 H   0  0  0  0  0
    3.7560    2.1510   -1.8450 H   0  0  0  0  0
    5.2990   -3.7240    1.3050 H   0  0  0  0  0
    4.4580   -2.7830    2.5600 H   0  0  0  0  0
    3.5200   -3.6820    1.3440 H   0  0  0  0  0
    1.4970   -1.6630    1.2290 H   0  0  0  0  0
    2.6540   -1.6450    2.5820 H   0  0  0  0  0
    1.9740   -0.1170    1.9720 H   0  0  0  0  0
  1  2  1  0  0  0
  1  6  1  0  0  0
  1 28  1  0  0  0
  1 29  1  0  0  0
  2  3  1  0  0  0
  2 30  1  0  0  0
  2 31  1  0  0  0
  3  4  1  0  0  0
  3 32  1  0  0  0
  4  5  1  0  0  0
  4 33  1  0  0  0
  4 34  1  0  0  0
  5  6  1  0  0  0
  5 35  1  0  0  0
  5 36  1  0  0  0
  6  7  1  0  0  0
  7  8  1  0  0  0
  7 10  2  0  0  0
  8  9  2  0  0  0
  8 37  1  0  0  0
  9 12  1  0  0  0
  9 39  1  0  0  0
 10 11  1  0  0  0
 10 38  1  0  0  0
 11 12  1  0  0  0
 11 40  1  0  0  0
 11 41  1  0  0  0
 12 13  2  0  0  0
 13 14  1  0  0  0
 14 15  1  0  0  0
 14 16  2  0  0  0
 15 19  2  0  0  0
 16 17  1  0  0  0
 17 18  2  0  0  0
 17 42  1  0  0  0
 18 19  1  0  0  0
 18 43  1  0  0  0
 19 20  1  0  0  0
 20 21  1  0  0  0
 20 26  2  0  0  0
 21 22  1  0  0  0
 22 23  2  0  0  0
 22 24  1  0  0  0
 24 25  1  0  0  0
 24 26  1  0  0  0
 25 44  1  0  0  0
 25 45  1  0  0  0
 25 46  1  0  0  0
 26 27  1  0  0  0
 27 47  1  0  0  0
 27 48  1  0  0  0
 27 49  1  0  0  0
M  END
$$$$
