YCM
  CCTOOLS-1004241126

 21 20  0  0  1  0  0  0  0  0999 V2000
    3.0350   -1.4720   -0.4400 N   0  0  0  0  0
    1.6650   -1.1640   -0.7660 C   0  0  0  0  0
    1.0760   -0.1070    0.1720 C   0  0  0  0  0
    1.8320    1.5420   -0.0140 S   0  0  0  0  0
    0.8240    2.4220    1.2000 C   0  0  0  0  0
    1.2610    3.8650    1.2460 C   0  0  0  0  0
    1.2270    4.6000    0.2610 O   0  0  0  0  0
    1.7070    4.2670    2.4840 N   0  0  0  0  0
    1.5000   -0.7940   -2.2310 C   0  0  0  0  0
    2.4360   -0.6640   -3.0100 O   0  0  0  0  0
    0.2080   -0.6050   -2.5930 O   0  0  0  0  0
    3.7580   -1.2360   -1.0980 H   0  0  0  0  0
    3.2250   -2.0900    0.3310 H   0  0  0  0  0
    1.1170   -2.1040   -0.6270 H   0  0  0  0  0
    1.2170   -0.4140    1.2140 H   0  0  0  0  0
    0.0000    0.0000    0.0000 H   0  0  0  0  0
   -0.2300    2.3820    0.9080 H   0  0  0  0  0
    0.9260    1.9380    2.1750 H   0  0  0  0  0
    2.0210    5.2250    2.6010 H   0  0  0  0  0
    1.7350    3.6440    3.2850 H   0  0  0  0  0
    0.1250   -0.3560   -3.5380 H   0  0  0  0  0
  1  2  1  0  0  0
  1 12  1  0  0  0
  1 13  1  0  0  0
  2  3  1  0  0  0
  2  9  1  0  0  0
  2 14  1  0  0  0
  3  4  1  0  0  0
  3 15  1  0  0  0
  3 16  1  0  0  0
  4  5  1  0  0  0
  5  6  1  0  0  0
  5 17  1  0  0  0
  5 18  1  0  0  0
  6  7  2  0  0  0
  6  8  1  0  0  0
  8 19  1  0  0  0
  8 20  1  0  0  0
  9 10  2  0  0  0
  9 11  1  0  0  0
 11 21  1  0  0  0
M  END
$$$$
