YG
  CCTOOLS-0919241038

 69 72  0  0  1  0  0  0  0  0999 V2000
   -0.9380   -0.9170    1.9130 N   0  0  0  0  0
   -2.9900   -1.5940    1.7130 N   0  0  0  0  0
   -1.9620   -1.1300    1.0360 C   0  0  0  0  0
   -1.8030   -0.8590   -0.3080 N   0  0  0  0  0
   -2.9100   -1.0930   -1.2380 C   0  0  0  0  0
   -0.6070   -0.3720   -0.7730 C   0  0  0  0  0
    0.4380   -0.1530    0.1150 C   0  0  0  0  0
    0.2480   -0.4390    1.4900 C   0  0  0  0  0
    1.1520   -0.2550    2.2840 O   0  0  0  0  0
    1.4850    0.3240   -0.6050 N   0  0  0  0  0
    1.1400    0.4060   -1.8560 C   0  0  0  0  0
   -0.1480   -0.0150   -2.0040 N   0  0  0  0  0
   -3.5640   -2.1870    4.1120 C   0  0  0  0  0
   -2.6610   -1.6950    3.0100 C   0  0  0  0  0
   -1.3930   -1.2760    3.1630 C   0  0  0  0  0
   -0.6170   -1.2150    4.4520 C   0  0  0  0  0
   -0.8190    0.1530    5.1060 C   0  0  0  0  0
   -0.0310    0.2140    6.4160 C   0  0  0  0  0
   -0.2300    1.5620    7.0590 C   0  0  0  0  0
   -1.1410    1.7320    7.8350 O   0  0  0  0  0
    0.6030    2.5730    6.7710 O   0  0  0  0  0
    0.4110    3.8720    7.3910 C   0  0  0  0  0
    1.3930    0.0110    6.1380 N   0  0  0  0  0
    2.1840   -0.5640    7.0640 C   0  0  0  0  0
    1.7170   -0.9150    8.1290 O   0  0  0  0  0
    3.4930   -0.7500    6.8090 O   0  0  0  0  0
    4.3460   -1.3710    7.8070 C   0  0  0  0  0
   -0.9010   -0.0740   -3.2590 C   0  0  0  0  0
   -1.6140    1.2700   -3.5230 C   0  0  0  0  0
   -2.9840    1.2040   -3.1210 O   0  0  0  0  0
   -1.5070    1.4560   -5.0540 C   0  0  0  0  0
   -2.8070    1.5080   -5.6450 O   0  0  0  0  0
   -0.7460    0.2000   -5.5330 C   0  0  0  0  0
   -0.0020   -0.2430   -4.3770 O   0  0  0  0  0
    0.2080    0.5560   -6.6750 C   0  0  0  0  0
    0.9530   -0.6020   -7.0530 O   0  0  0  0  0
    1.9300   -0.1570   -8.2520 P   0  0  0  0  0
    2.8330    0.9150   -7.7790 O   0  0  0  0  0
    2.8050   -1.4220   -8.7290 O   0  0  0  0  0
    1.0520    0.3840   -9.4870 O   0  0  0  0  0
   -3.7700   -1.4780   -0.6900 H   0  0  0  0  0
   -3.1790   -0.1560   -1.7250 H   0  0  0  0  0
   -2.6040   -1.8190   -1.9920 H   0  0  0  0  0
    1.7770    0.7550   -2.6560 H   0  0  0  0  0
   -3.4520   -3.2660    4.2190 H   0  0  0  0  0
   -3.2940   -1.6990    5.0480 H   0  0  0  0  0
   -4.6000   -1.9520    3.8650 H   0  0  0  0  0
    0.4420   -1.3660    4.2460 H   0  0  0  0  0
   -0.9700   -1.9950    5.1260 H   0  0  0  0  0
   -1.8790    0.3030    5.3120 H   0  0  0  0  0
   -0.4660    0.9330    4.4320 H   0  0  0  0  0
   -0.3840   -0.5650    7.0900 H   0  0  0  0  0
    1.1780    4.5610    7.0380 H   0  0  0  0  0
   -0.5730    4.2590    7.1270 H   0  0  0  0  0
    0.4830    3.7720    8.4740 H   0  0  0  0  0
    1.7660    0.2920    5.2880 H   0  0  0  0  0
    5.3640   -1.4370    7.4240 H   0  0  0  0  0
    4.3380   -0.7700    8.7160 H   0  0  0  0  0
    3.9760   -2.3720    8.0290 H   0  0  0  0  0
   -1.6250   -0.8880   -3.2290 H   0  0  0  0  0
   -1.1030    2.0800   -3.0030 H   0  0  0  0  0
   -3.3880    2.0480   -3.3660 H   0  0  0  0  0
   -0.9440    2.3580   -5.2920 H   0  0  0  0  0
   -3.2340    2.3090   -5.3110 H   0  0  0  0  0
   -1.4470   -0.5700   -5.8520 H   0  0  0  0  0
   -0.3660    0.9140   -7.5300 H   0  0  0  0  0
    0.8930    1.3370   -6.3460 H   0  0  0  0  0
    3.3750   -1.1130   -9.4460 H   0  0  0  0  0
    0.4790   -0.3440   -9.7640 H   0  0  0  0  0
  1  3  1  0  0  0
  1  8  1  0  0  0
  1 15  1  0  0  0
  2  3  2  0  0  0
  2 14  1  0  0  0
  3  4  1  0  0  0
  4  5  1  0  0  0
  4  6  1  0  0  0
  5 41  1  0  0  0
  5 42  1  0  0  0
  5 43  1  0  0  0
  6  7  2  0  0  0
  6 12  1  0  0  0
  7  8  1  0  0  0
  7 10  1  0  0  0
  8  9  2  0  0  0
 10 11  2  0  0  0
 11 12  1  0  0  0
 11 44  1  0  0  0
 12 28  1  0  0  0
 13 14  1  0  0  0
 13 45  1  0  0  0
 13 46  1  0  0  0
 13 47  1  0  0  0
 14 15  2  0  0  0
 15 16  1  0  0  0
 16 17  1  0  0  0
 16 48  1  0  0  0
 16 49  1  0  0  0
 17 18  1  0  0  0
 17 50  1  0  0  0
 17 51  1  0  0  0
 18 19  1  0  0  0
 18 23  1  0  0  0
 18 52  1  0  0  0
 19 20  2  0  0  0
 19 21  1  0  0  0
 21 22  1  0  0  0
 22 53  1  0  0  0
 22 54  1  0  0  0
 22 55  1  0  0  0
 23 24  1  0  0  0
 23 56  1  0  0  0
 24 25  2  0  0  0
 24 26  1  0  0  0
 26 27  1  0  0  0
 27 57  1  0  0  0
 27 58  1  0  0  0
 27 59  1  0  0  0
 28 29  1  0  0  0
 28 34  1  0  0  0
 28 60  1  0  0  0
 29 30  1  0  0  0
 29 31  1  0  0  0
 29 61  1  0  0  0
 30 62  1  0  0  0
 31 32  1  0  0  0
 31 33  1  0  0  0
 31 63  1  0  0  0
 32 64  1  0  0  0
 33 34  1  0  0  0
 33 35  1  0  0  0
 33 65  1  0  0  0
 35 36  1  0  0  0
 35 66  1  0  0  0
 35 67  1  0  0  0
 36 37  1  0  0  0
 37 38  2  0  0  0
 37 39  1  0  0  0
 37 40  1  0  0  0
 39 68  1  0  0  0
 40 69  1  0  0  0
M  END
$$$$
