YI3
  CCTOOLS-0919241039

 85 87  0  0  1  0  0  0  0  0999 V2000
   -8.2690    0.3510    1.2290 O   0  0  0  0  0
   -7.9530    1.3270    0.2330 C   0  0  0  0  0
   -9.2030    1.6350   -0.5930 C   0  0  0  0  0
   -7.4610    2.6070    0.9110 C   0  0  0  0  0
   -6.8570    0.7820   -0.6850 C   0  0  0  0  0
   -5.6060    0.4740    0.1410 C   0  0  0  0  0
   -4.5100   -0.0700   -0.7770 C   0  0  0  0  0
   -3.2600   -0.3790    0.0490 C   0  0  0  0  0
   -3.5640   -1.5110    1.0320 C   0  0  0  0  0
   -2.1240   -0.8040   -0.8830 C   0  0  0  0  0
   -1.7510    0.3570   -1.8420 C   0  0  0  0  0
   -0.2370    0.6360   -1.6220 C   0  0  0  0  0
    0.2770   -0.6990   -1.0770 C   0  0  0  0  0
   -0.8600   -1.0820   -0.0850 C   0  0  0  0  0
   -0.8120   -0.1430    1.1230 C   0  0  0  0  0
   -0.6000   -2.4940    0.3850 C   0  0  0  0  0
    0.6700   -2.4680    1.2510 C   0  0  0  0  0
    1.8760   -1.9440    0.4740 C   0  0  0  0  0
    2.3120   -2.9950   -0.5490 C   0  0  0  0  0
    2.8100   -4.2430    0.1830 C   0  0  0  0  0
    3.2460   -5.2940   -0.8400 C   0  0  0  0  0
    3.7440   -6.5420   -0.1090 C   0  0  0  0  0
    1.5300   -0.6520   -0.2530 C   0  0  0  0  0
    2.2830    0.4380   -0.1650 C   0  0  0  0  0
    3.5030    0.4250    0.6580 C   0  0  0  0  0
    4.1990    1.5430    0.8310 C   0  0  0  0  0
    5.5250    1.5250    1.5590 C   0  0  0  0  0
    3.6900    2.8640    0.3010 C   0  0  0  0  0
    4.8030    3.5210   -0.5230 C   0  0  0  0  0
    4.3890    4.8260   -0.9290 O   0  0  0  0  0
    6.0690    3.6290    0.3290 C   0  0  0  0  0
    6.5690    2.2330    0.6880 C   0  0  0  0  0
    6.7840    1.4820   -0.5090 O   0  0  0  0  0
   -8.5870   -0.4880    0.8700 H   0  0  0  0  0
   -9.9840    2.0230    0.0610 H   0  0  0  0  0
   -8.9630    2.3790   -1.3520 H   0  0  0  0  0
   -9.5540    0.7230   -1.0760 H   0  0  0  0  0
   -8.2430    2.9950    1.5650 H   0  0  0  0  0
   -6.5710    2.3870    1.5000 H   0  0  0  0  0
   -7.2210    3.3510    0.1520 H   0  0  0  0  0
   -7.2070   -0.1300   -1.1680 H   0  0  0  0  0
   -6.6160    1.5260   -1.4440 H   0  0  0  0  0
   -5.2560    1.3860    0.6240 H   0  0  0  0  0
   -5.8470   -0.2700    0.9010 H   0  0  0  0  0
   -4.8600   -0.9820   -1.2600 H   0  0  0  0  0
   -4.2690    0.6740   -1.5360 H   0  0  0  0  0
   -2.9610    0.5120    0.6030 H   0  0  0  0  0
   -2.6730   -1.7310    1.6210 H   0  0  0  0  0
   -4.3730   -1.2080    1.6970 H   0  0  0  0  0
   -3.8630   -2.4010    0.4790 H   0  0  0  0  0
   -2.4140   -1.6870   -1.4530 H   0  0  0  0  0
   -1.9300    0.0610   -2.8760 H   0  0  0  0  0
   -2.3350    1.2440   -1.6010 H   0  0  0  0  0
    0.2520    0.8820   -2.5640 H   0  0  0  0  0
   -0.0950    1.4320   -0.8910 H   0  0  0  0  0
    0.3590   -1.4360   -1.8750 H   0  0  0  0  0
   -1.0810    0.8660    0.8090 H   0  0  0  0  0
   -1.5150   -0.4880    1.8800 H   0  0  0  0  0
    0.1960   -0.1380    1.5390 H   0  0  0  0  0
   -1.4440   -2.8480    0.9760 H   0  0  0  0  0
   -0.4500   -3.1480   -0.4740 H   0  0  0  0  0
    0.4980   -1.8260    2.1150 H   0  0  0  0  0
    0.8850   -3.4790    1.5970 H   0  0  0  0  0
    2.6960   -1.7560    1.1670 H   0  0  0  0  0
    1.4650   -3.2590   -1.1820 H   0  0  0  0  0
    3.1150   -2.5910   -1.1660 H   0  0  0  0  0
    3.6570   -3.9790    0.8160 H   0  0  0  0  0
    2.0070   -4.6470    0.7990 H   0  0  0  0  0
    2.3990   -5.5580   -1.4740 H   0  0  0  0  0
    4.0490   -4.8900   -1.4570 H   0  0  0  0  0
    4.0550   -7.2910   -0.8370 H   0  0  0  0  0
    4.5910   -6.2780    0.5250 H   0  0  0  0  0
    2.9410   -6.9460    0.5080 H   0  0  0  0  0
    2.0010    1.3340   -0.6980 H   0  0  0  0  0
    3.8310   -0.4940    1.1210 H   0  0  0  0  0
    5.4280    2.0480    2.5100 H   0  0  0  0  0
    5.8320    0.4950    1.7380 H   0  0  0  0  0
    2.8190    2.6940   -0.3320 H   0  0  0  0  0
    3.4160    3.5120    1.1330 H   0  0  0  0  0
    5.0090    2.9140   -1.4040 H   0  0  0  0  0
    3.5900    4.8330   -1.4740 H   0  0  0  0  0
    6.8380    4.1560   -0.2350 H   0  0  0  0  0
    5.8500    4.1810    1.2440 H   0  0  0  0  0
    7.5050    2.3120    1.2410 H   0  0  0  0  0
    7.1030    0.5820   -0.3570 H   0  0  0  0  0
  1 34  1  0  0  0
  2  3  1  0  0  0
  2  1  1  0  0  0
  3 35  1  0  0  0
  3 36  1  0  0  0
  3 37  1  0  0  0
  4  2  1  0  0  0
  4 38  1  0  0  0
  4 39  1  0  0  0
  4 40  1  0  0  0
  5  2  1  0  0  0
  5  6  1  0  0  0
  5 41  1  0  0  0
  5 42  1  0  0  0
  6 43  1  0  0  0
  6 44  1  0  0  0
  7  6  1  0  0  0
  7  8  1  0  0  0
  7 45  1  0  0  0
  7 46  1  0  0  0
  8  9  1  0  0  0
  8 47  1  0  0  0
  9 48  1  0  0  0
  9 49  1  0  0  0
  9 50  1  0  0  0
 10  8  1  0  0  0
 10 51  1  0  0  0
 11 10  1  0  0  0
 11 52  1  0  0  0
 11 53  1  0  0  0
 12 13  1  0  0  0
 12 11  1  0  0  0
 12 54  1  0  0  0
 12 55  1  0  0  0
 13 14  1  0  0  0
 13 56  1  0  0  0
 14 10  1  0  0  0
 14 16  1  0  0  0
 15 14  1  0  0  0
 15 57  1  0  0  0
 15 58  1  0  0  0
 15 59  1  0  0  0
 16 60  1  0  0  0
 16 61  1  0  0  0
 17 16  1  0  0  0
 17 62  1  0  0  0
 17 63  1  0  0  0
 18 19  1  0  0  0
 18 17  1  0  0  0
 18 64  1  0  0  0
 19 65  1  0  0  0
 19 66  1  0  0  0
 20 21  1  0  0  0
 20 19  1  0  0  0
 20 67  1  0  0  0
 20 68  1  0  0  0
 21 22  1  0  0  0
 21 69  1  0  0  0
 21 70  1  0  0  0
 22 71  1  0  0  0
 22 72  1  0  0  0
 22 73  1  0  0  0
 23 13  1  0  0  0
 23 18  1  0  0  0
 24 23  2  0  0  0
 24 74  1  0  0  0
 25 24  1  0  0  0
 25 75  1  0  0  0
 26 25  2  0  0  0
 27 26  1  0  0  0
 27 76  1  0  0  0
 27 77  1  0  0  0
 28 26  1  0  0  0
 28 78  1  0  0  0
 28 79  1  0  0  0
 29 30  1  0  0  0
 29 28  1  0  0  0
 29 80  1  0  0  0
 30 81  1  0  0  0
 31 32  1  0  0  0
 31 29  1  0  0  0
 31 82  1  0  0  0
 31 83  1  0  0  0
 32 27  1  0  0  0
 32 84  1  0  0  0
 33 32  1  0  0  0
 33 85  1  0  0  0
M  END
$$$$
