YI4
  CCTOOLS-0919241039

 85 87  0  0  1  0  0  0  0  0999 V2000
    7.5290   -3.4880    0.8440 O   0  0  0  0  0
    8.1890   -2.3430    0.3010 C   0  0  0  0  0
    8.6120   -1.4110    1.4380 C   0  0  0  0  0
    9.4270   -2.7900   -0.4800 C   0  0  0  0  0
    7.2340   -1.6020   -0.6370 C   0  0  0  0  0
    6.0570   -1.0470    0.1680 C   0  0  0  0  0
    5.1020   -0.3060   -0.7710 C   0  0  0  0  0
    3.9250    0.2490    0.0340 C   0  0  0  0  0
    4.4320    1.3080    1.0150 C   0  0  0  0  0
    2.9090    0.8810   -0.9190 C   0  0  0  0  0
    2.3290   -0.1920   -1.8770 C   0  0  0  0  0
    0.7870   -0.1670   -1.6790 C   0  0  0  0  0
    0.5370    1.2470   -1.1490 C   0  0  0  0  0
    1.7120    1.4080   -0.1410 C   0  0  0  0  0
    1.4630    0.5070    1.0700 C   0  0  0  0  0
    1.7280    2.8480    0.3160 C   0  0  0  0  0
    0.4650    3.0790    1.1630 C   0  0  0  0  0
   -0.8090    2.7950    0.3690 C   0  0  0  0  0
   -1.0150    3.9030   -0.6660 C   0  0  0  0  0
   -1.2650    5.2100    0.0400 C   0  0  0  0  0
   -0.5150    6.2520   -0.2240 C   0  0  0  0  0
   -0.7120    1.4550   -0.3460 C   0  0  0  0  0
   -1.6670    0.5340   -0.2640 C   0  0  0  0  0
   -2.8720    0.7940    0.5400 C   0  0  0  0  0
   -3.7640   -0.1720    0.7300 C   0  0  0  0  0
   -5.0850    0.1230    1.4030 C   0  0  0  0  0
   -6.2190   -0.3350    0.4770 C   0  0  0  0  0
   -6.2910    0.5320   -0.6580 O   0  0  0  0  0
   -3.4790   -1.5840    0.2710 C   0  0  0  0  0
   -4.6170   -2.0370   -0.6530 C   0  0  0  0  0
   -4.5050   -3.4410   -0.8980 O   0  0  0  0  0
   -5.9320   -1.7480    0.0230 C   0  0  0  0  0
   -6.8120   -2.7000    0.2100 C   0  0  0  0  0
   -8.1840   -2.3650    0.7350 C   0  0  0  0  0
   -9.1670   -3.0890   -0.0090 O   0  0  0  0  0
    8.0770   -4.0070    1.4490 H   0  0  0  0  0
    9.2920   -1.9390    2.1060 H   0  0  0  0  0
    9.1150   -0.5380    1.0240 H   0  0  0  0  0
    7.7310   -1.0930    1.9940 H   0  0  0  0  0
    9.1250   -3.4540   -1.2900 H   0  0  0  0  0
    9.9300   -1.9160   -0.8940 H   0  0  0  0  0
   10.1070   -3.3180    0.1880 H   0  0  0  0  0
    7.7640   -0.7800   -1.1200 H   0  0  0  0  0
    6.8630   -2.2900   -1.3960 H   0  0  0  0  0
    5.5270   -1.8690    0.6500 H   0  0  0  0  0
    6.4280   -0.3590    0.9270 H   0  0  0  0  0
    5.6320    0.5160   -1.2530 H   0  0  0  0  0
    4.7310   -0.9940   -1.5300 H   0  0  0  0  0
    3.4490   -0.5610    0.5870 H   0  0  0  0  0
    4.9070    2.1170    0.4620 H   0  0  0  0  0
    3.5930    1.7020    1.5890 H   0  0  0  0  0
    5.1550    0.8570    1.6940 H   0  0  0  0  0
    3.3740    1.6860   -1.4880 H   0  0  0  0  0
    2.5770    0.0550   -2.9090 H   0  0  0  0  0
    2.7240   -1.1750   -1.6220 H   0  0  0  0  0
    0.2720   -0.3200   -2.6280 H   0  0  0  0  0
    0.4800   -0.9130   -0.9470 H   0  0  0  0  0
    0.6130    1.9800   -1.9530 H   0  0  0  0  0
    1.5370   -0.5380    0.7670 H   0  0  0  0  0
    2.2080    0.7160    1.8380 H   0  0  0  0  0
    0.4670    0.7010    1.4680 H   0  0  0  0  0
    2.6170    3.0340    0.9190 H   0  0  0  0  0
    1.7220    3.5110   -0.5480 H   0  0  0  0  0
    0.4950    2.4230    2.0330 H   0  0  0  0  0
    0.4480    4.1150    1.5000 H   0  0  0  0  0
   -1.6600    2.7770    1.0500 H   0  0  0  0  0
   -0.1230    3.9900   -1.2870 H   0  0  0  0  0
   -1.8720    3.6590   -1.2930 H   0  0  0  0  0
   -2.0620    5.2890    0.7650 H   0  0  0  0  0
    0.2820    6.1730   -0.9490 H   0  0  0  0  0
   -0.6950    7.1880    0.2820 H   0  0  0  0  0
   -1.5590   -0.4040   -0.7870 H   0  0  0  0  0
   -3.0300    1.7690    0.9760 H   0  0  0  0  0
   -5.1430   -0.4190    2.3470 H   0  0  0  0  0
   -5.1700    1.1930    1.5890 H   0  0  0  0  0
   -7.1660   -0.3090    1.0170 H   0  0  0  0  0
   -6.4610    1.4570   -0.4360 H   0  0  0  0  0
   -2.5340   -1.6090   -0.2730 H   0  0  0  0  0
   -3.4210   -2.2450    1.1350 H   0  0  0  0  0
   -4.5590   -1.4960   -1.5970 H   0  0  0  0  0
   -3.6750   -3.7020   -1.3210 H   0  0  0  0  0
   -6.5530   -3.7250   -0.0110 H   0  0  0  0  0
   -8.2480   -2.6420    1.7870 H   0  0  0  0  0
   -8.3630   -1.2950    0.6280 H   0  0  0  0  0
  -10.0760   -2.9210    0.2750 H   0  0  0  0  0
  1 36  1  0  0  0
  2  1  1  0  0  0
  2  3  1  0  0  0
  3 37  1  0  0  0
  3 38  1  0  0  0
  3 39  1  0  0  0
  4  2  1  0  0  0
  4 40  1  0  0  0
  4 41  1  0  0  0
  4 42  1  0  0  0
  5  2  1  0  0  0
  5  6  1  0  0  0
  5 43  1  0  0  0
  5 44  1  0  0  0
  6 45  1  0  0  0
  6 46  1  0  0  0
  7  6  1  0  0  0
  7  8  1  0  0  0
  7 47  1  0  0  0
  7 48  1  0  0  0
  8  9  1  0  0  0
  8 49  1  0  0  0
  9 50  1  0  0  0
  9 51  1  0  0  0
  9 52  1  0  0  0
 10  8  1  0  0  0
 10 53  1  0  0  0
 11 10  1  0  0  0
 11 54  1  0  0  0
 11 55  1  0  0  0
 12 13  1  0  0  0
 12 11  1  0  0  0
 12 56  1  0  0  0
 12 57  1  0  0  0
 13 14  1  0  0  0
 13 58  1  0  0  0
 14 10  1  0  0  0
 14 16  1  0  0  0
 15 14  1  0  0  0
 15 59  1  0  0  0
 15 60  1  0  0  0
 15 61  1  0  0  0
 16 62  1  0  0  0
 16 63  1  0  0  0
 17 16  1  0  0  0
 17 64  1  0  0  0
 17 65  1  0  0  0
 18 19  1  0  0  0
 18 17  1  0  0  0
 18 66  1  0  0  0
 19 20  1  0  0  0
 19 67  1  0  0  0
 19 68  1  0  0  0
 20 21  2  0  0  0
 20 69  1  0  0  0
 21 70  1  0  0  0
 21 71  1  0  0  0
 22 13  1  0  0  0
 22 18  1  0  0  0
 23 22  2  0  0  0
 23 72  1  0  0  0
 24 23  1  0  0  0
 24 73  1  0  0  0
 25 24  2  0  0  0
 26 25  1  0  0  0
 26 74  1  0  0  0
 26 75  1  0  0  0
 27 26  1  0  0  0
 27 76  1  0  0  0
 28 27  1  0  0  0
 28 77  1  0  0  0
 29 25  1  0  0  0
 29 78  1  0  0  0
 29 79  1  0  0  0
 30 31  1  0  0  0
 30 29  1  0  0  0
 30 80  1  0  0  0
 31 81  1  0  0  0
 32 27  1  0  0  0
 32 30  1  0  0  0
 33 32  2  0  0  0
 33 82  1  0  0  0
 34 33  1  0  0  0
 34 83  1  0  0  0
 34 84  1  0  0  0
 35 34  1  0  0  0
 35 85  1  0  0  0
M  END
$$$$
