YL3
  CCTOOLS-0919241039

 36 38  0  0  0  0  0  0  0  0999 V2000
   -4.3000    0.2480    1.4010 O   0  0  0  0  0
   -4.3440    1.3740    0.2510 P   0  0  0  0  0
   -5.8750    1.7350   -0.0880 O   0  0  0  0  0
   -3.6430    2.5890    0.7240 O   0  0  0  0  0
   -3.5210    0.7440   -1.2480 C   0  0  0  0  0
   -2.0990    0.5280   -0.9710 N   0  0  0  0  0
   -1.6500   -0.7260   -0.5980 C   0  0  0  0  0
   -2.4960   -1.7400   -0.4930 N   0  0  0  0  0
   -2.0810   -2.9430   -0.1380 C   0  0  0  0  0
   -0.8210   -3.1980    0.1280 N   0  0  0  0  0
    0.1100   -2.2400    0.0500 C   0  0  0  0  0
    1.8430   -2.2830    0.3430 S   0  0  0  0  0
   -0.2740   -0.9480   -0.3270 C   0  0  0  0  0
    0.8490   -0.0360   -0.3680 C   0  0  0  0  0
    2.0190   -0.5800   -0.0360 C   0  0  0  0  0
    3.3030    0.1530   -0.0050 C   0  0  0  0  0
    4.4780   -0.5060    0.3570 C   0  0  0  0  0
    5.6730    0.1840    0.3830 C   0  0  0  0  0
    5.7070    1.5270    0.0510 C   0  0  0  0  0
    7.0150    2.2740    0.0820 C   0  0  0  0  0
    4.5450    2.1860   -0.3090 C   0  0  0  0  0
    3.3450    1.5070   -0.3440 C   0  0  0  0  0
   -4.7410   -0.5780    1.1590 H   0  0  0  0  0
   -6.3750    2.0780    0.6660 H   0  0  0  0  0
   -3.9810   -0.1990   -1.5460 H   0  0  0  0  0
   -3.6280    1.4700   -2.0540 H   0  0  0  0  0
   -1.4720    1.2640   -1.0500 H   0  0  0  0  0
   -2.8030   -3.7430   -0.0640 H   0  0  0  0  0
    0.7440    1.0050   -0.6360 H   0  0  0  0  0
    4.4530   -1.5540    0.6170 H   0  0  0  0  0
    6.5830   -0.3250    0.6640 H   0  0  0  0  0
    7.4950    2.2070   -0.8950 H   0  0  0  0  0
    6.8300    3.3200    0.3240 H   0  0  0  0  0
    7.6660    1.8360    0.8380 H   0  0  0  0  0
    4.5780    3.2340   -0.5670 H   0  0  0  0  0
    2.4390    2.0220   -0.6260 H   0  0  0  0  0
  1 23  1  0  0  0
  2  3  1  0  0  0
  2  5  1  0  0  0
  2  1  1  0  0  0
  3 24  1  0  0  0
  4  2  2  0  0  0
  5  6  1  0  0  0
  5 25  1  0  0  0
  5 26  1  0  0  0
  6  7  1  0  0  0
  6 27  1  0  0  0
  7 13  2  0  0  0
  7  8  1  0  0  0
  8  9  2  0  0  0
  9 10  1  0  0  0
  9 28  1  0  0  0
 11 12  1  0  0  0
 11 10  2  0  0  0
 13 11  1  0  0  0
 14 13  1  0  0  0
 14 15  2  0  0  0
 14 29  1  0  0  0
 15 12  1  0  0  0
 16 17  1  0  0  0
 16 15  1  0  0  0
 17 30  1  0  0  0
 18 17  2  0  0  0
 18 31  1  0  0  0
 19 18  1  0  0  0
 20 19  1  0  0  0
 20 32  1  0  0  0
 20 33  1  0  0  0
 20 34  1  0  0  0
 21 19  2  0  0  0
 21 22  1  0  0  0
 21 35  1  0  0  0
 22 16  2  0  0  0
 22 36  1  0  0  0
M  END
$$$$
