YR4
  CCTOOLS-0919241040

 78 79  0  0  1  0  0  0  0  0999 V2000
   -1.4690   -0.6510   -0.2770 C   0  0  0  0  0
   -2.4960    0.2540   -0.4580 C   0  0  0  0  0
   -3.7730   -0.0480   -0.0070 C   0  0  0  0  0
   -4.0150   -1.2600    0.6230 C   0  0  0  0  0
   -2.9840   -2.1620    0.8020 C   0  0  0  0  0
   -1.7120   -1.8580    0.3520 C   0  0  0  0  0
   -0.5900   -2.8440    0.5480 C   0  0  0  0  0
    0.7250   -2.1780    0.2340 C   0  0  0  0  0
    1.0560   -0.9830    0.8460 C   0  0  0  0  0
    1.6010   -2.7650   -0.6600 C   0  0  0  0  0
    2.8060   -2.1560   -0.9490 C   0  0  0  0  0
    3.1390   -0.9540   -0.3400 C   0  0  0  0  0
    2.2610   -0.3700    0.5600 C   0  0  0  0  0
   -0.5830   -3.3280    1.9990 C   0  0  0  0  0
   -0.5270   -2.1210    2.9390 C   0  0  0  0  0
   -0.7910   -4.0390   -0.3870 C   0  0  0  0  0
   -0.9640   -3.5400   -1.8230 C   0  0  0  0  0
   -5.4000   -1.5910    1.1150 C   0  0  0  0  0
    3.7610   -2.7970   -1.9240 C   0  0  0  0  0
    4.3250   -0.3530   -0.6230 O   0  0  0  0  0
   -4.7850    0.8410   -0.1840 O   0  0  0  0  0
    4.6000    0.8820    0.0410 C   0  0  0  0  0
    5.9690    1.4030   -0.4000 C   0  0  0  0  0
    6.2100    2.7840    0.2130 C   0  0  0  0  0
    6.9870    0.5020    0.0420 O   0  0  0  0  0
    6.1720    2.6790    1.7390 C   0  0  0  0  0
    7.5800    3.3060   -0.2280 C   0  0  0  0  0
    5.1210    3.7490   -0.2600 C   0  0  0  0  0
   -4.4420    2.1150   -0.7340 C   0  0  0  0  0
   -5.4920    3.1480   -0.3220 C   0  0  0  0  0
   -4.3940    2.0150   -2.2600 C   0  0  0  0  0
   -5.4530    3.3390    1.1960 C   0  0  0  0  0
   -5.7020    1.7280   -2.7590 O   0  0  0  0  0
   -6.4350    4.3040    1.5800 O   0  0  0  0  0
   -0.4760   -0.4180   -0.6320 H   0  0  0  0  0
   -2.3050    1.1970   -0.9490 H   0  0  0  0  0
   -3.1710   -3.1050    1.2930 H   0  0  0  0  0
    0.3720   -0.5280    1.5470 H   0  0  0  0  0
    1.3420   -3.7010   -1.1330 H   0  0  0  0  0
    2.5180    0.5640    1.0380 H   0  0  0  0  0
   -1.4900   -3.9000    2.1960 H   0  0  0  0  0
    0.2890   -3.9600    2.1680 H   0  0  0  0  0
   -0.7570   -2.4410    3.9550 H   0  0  0  0  0
    0.4710   -1.6860    2.9120 H   0  0  0  0  0
   -1.2570   -1.3780    2.6180 H   0  0  0  0  0
    0.0780   -4.6940   -0.3320 H   0  0  0  0  0
   -1.6810   -4.5910   -0.0840 H   0  0  0  0  0
   -1.1420   -4.3880   -2.4830 H   0  0  0  0  0
   -1.8130   -2.8580   -1.8700 H   0  0  0  0  0
   -0.0600   -3.0180   -2.1370 H   0  0  0  0  0
   -5.9530   -2.1000    0.3250 H   0  0  0  0  0
   -5.3310   -2.2410    1.9870 H   0  0  0  0  0
   -5.9190   -0.6720    1.3870 H   0  0  0  0  0
    3.5470   -2.4380   -2.9310 H   0  0  0  0  0
    4.7840   -2.5360   -1.6550 H   0  0  0  0  0
    3.6410   -3.8800   -1.8910 H   0  0  0  0  0
    3.8330    1.6120   -0.2180 H   0  0  0  0  0
    4.6010    0.7230    1.1190 H   0  0  0  0  0
    5.9970    1.4780   -1.4870 H   0  0  0  0  0
    7.0200    0.3870    1.0010 H   0  0  0  0  0
    6.9470    1.9920    2.0760 H   0  0  0  0  0
    6.3430    3.6630    2.1750 H   0  0  0  0  0
    5.1960    2.3080    2.0530 H   0  0  0  0  0
    7.6080    3.3800   -1.3150 H   0  0  0  0  0
    7.7520    4.2900    0.2090 H   0  0  0  0  0
    8.3560    2.6180    0.1090 H   0  0  0  0  0
    4.1460    3.3780    0.0540 H   0  0  0  0  0
    5.2930    4.7330    0.1760 H   0  0  0  0  0
    5.1490    3.8240   -1.3470 H   0  0  0  0  0
   -3.4650    2.4210   -0.3590 H   0  0  0  0  0
   -5.2800    4.0980   -0.8130 H   0  0  0  0  0
   -6.4810    2.7990   -0.6190 H   0  0  0  0  0
   -4.0470    2.9610   -2.6750 H   0  0  0  0  0
   -3.7110    1.2170   -2.5510 H   0  0  0  0  0
   -5.6660    2.3890    1.6860 H   0  0  0  0  0
   -4.4640    3.6880    1.4920 H   0  0  0  0  0
   -5.7470    1.6510   -3.7220 H   0  0  0  0  0
   -6.4660    4.4750    2.5310 H   0  0  0  0  0
  1  2  2  0  0  0
  1  6  1  0  0  0
  1 35  1  0  0  0
  2  3  1  0  0  0
  2 36  1  0  0  0
  3  4  2  0  0  0
  3 21  1  0  0  0
  4  5  1  0  0  0
  4 18  1  0  0  0
  5  6  2  0  0  0
  5 37  1  0  0  0
  6  7  1  0  0  0
  7  8  1  0  0  0
  7 14  1  0  0  0
  7 16  1  0  0  0
  8  9  2  0  0  0
  8 10  1  0  0  0
  9 13  1  0  0  0
  9 38  1  0  0  0
 10 11  2  0  0  0
 10 39  1  0  0  0
 11 12  1  0  0  0
 11 19  1  0  0  0
 12 13  2  0  0  0
 12 20  1  0  0  0
 13 40  1  0  0  0
 14 15  1  0  0  0
 14 41  1  0  0  0
 14 42  1  0  0  0
 15 43  1  0  0  0
 15 44  1  0  0  0
 15 45  1  0  0  0
 16 17  1  0  0  0
 16 46  1  0  0  0
 16 47  1  0  0  0
 17 48  1  0  0  0
 17 49  1  0  0  0
 17 50  1  0  0  0
 18 51  1  0  0  0
 18 52  1  0  0  0
 18 53  1  0  0  0
 19 54  1  0  0  0
 19 55  1  0  0  0
 19 56  1  0  0  0
 20 22  1  0  0  0
 21 29  1  0  0  0
 22 23  1  0  0  0
 22 57  1  0  0  0
 22 58  1  0  0  0
 23 24  1  0  0  0
 23 25  1  0  0  0
 23 59  1  0  0  0
 24 26  1  0  0  0
 24 27  1  0  0  0
 24 28  1  0  0  0
 25 60  1  0  0  0
 26 61  1  0  0  0
 26 62  1  0  0  0
 26 63  1  0  0  0
 27 64  1  0  0  0
 27 65  1  0  0  0
 27 66  1  0  0  0
 28 67  1  0  0  0
 28 68  1  0  0  0
 28 69  1  0  0  0
 29 30  1  0  0  0
 29 31  1  0  0  0
 29 70  1  0  0  0
 30 32  1  0  0  0
 30 71  1  0  0  0
 30 72  1  0  0  0
 31 33  1  0  0  0
 31 73  1  0  0  0
 31 74  1  0  0  0
 32 34  1  0  0  0
 32 75  1  0  0  0
 32 76  1  0  0  0
 33 77  1  0  0  0
 34 78  1  0  0  0
M  END
$$$$
