YS2
  CCTOOLS-0919241040

 65 67  0  0  1  0  0  0  0  0999 V2000
   -8.1490   -2.6080   -1.0120 O   0  0  0  0  0
   -7.3150   -2.0570    0.0090 C   0  0  0  0  0
   -6.1580   -1.2910   -0.6350 C   0  0  0  0  0
   -5.2660   -0.7010    0.4590 C   0  0  0  0  0
   -4.1080    0.0650   -0.1850 C   0  0  0  0  0
   -4.6580    1.2690   -0.9520 C   0  0  0  0  0
   -3.1480    0.5490    0.9040 C   0  0  0  0  0
   -1.9710    1.2830    0.2820 C   0  0  0  0  0
   -1.6350    0.6460   -1.0680 C   0  0  0  0  0
   -2.0660    2.7820    0.1170 C   0  0  0  0  0
   -0.8040    3.2470   -0.6290 C   0  0  0  0  0
    0.4700    2.8830    0.1310 C   0  0  0  0  0
   -2.5240   -0.6610    1.6490 C   0  0  0  0  0
   -0.9830   -0.5140    1.5050 C   0  0  0  0  0
   -0.8070    0.9910    1.2720 C   0  0  0  0  0
    0.4420    1.4230    0.5620 C   0  0  0  0  0
    1.4500    0.5910    0.3260 C   0  0  0  0  0
    2.6510    1.0710   -0.3760 C   0  0  0  0  0
    3.6120    0.2160   -0.7080 C   0  0  0  0  0
    4.9080    0.7120   -1.3090 C   0  0  0  0  0
    3.4320   -1.2680   -0.4880 C   0  0  0  0  0
    4.5990   -1.7820    0.3640 C   0  0  0  0  0
    4.5890   -3.2110    0.3810 O   0  0  0  0  0
    5.8930   -1.2870   -0.2420 C   0  0  0  0  0
    6.8420   -2.1280   -0.5700 C   0  0  0  0  0
    6.0730    0.1940   -0.4550 C   0  0  0  0  0
    6.0830    0.8630    0.8080 O   0  0  0  0  0
   -8.9050   -3.1080   -0.6760 H   0  0  0  0  0
   -7.9010   -1.3770    0.6290 H   0  0  0  0  0
   -6.9190   -2.8620    0.6280 H   0  0  0  0  0
   -5.5730   -1.9710   -1.2540 H   0  0  0  0  0
   -6.5550   -0.4860   -1.2530 H   0  0  0  0  0
   -5.8510   -0.0210    1.0790 H   0  0  0  0  0
   -4.8690   -1.5060    1.0780 H   0  0  0  0  0
   -3.5760   -0.5920   -0.8720 H   0  0  0  0  0
   -3.8330    1.8140   -1.4110 H   0  0  0  0  0
   -5.3410    0.9240   -1.7280 H   0  0  0  0  0
   -5.1900    1.9260   -0.2640 H   0  0  0  0  0
   -3.6710    1.1980    1.6070 H   0  0  0  0  0
   -2.4430    0.8410   -1.7730 H   0  0  0  0  0
   -0.7080    1.0740   -1.4510 H   0  0  0  0  0
   -1.5130   -0.4300   -0.9420 H   0  0  0  0  0
   -2.9530    3.0350   -0.4630 H   0  0  0  0  0
   -2.1150    3.2590    1.0960 H   0  0  0  0  0
   -0.7790    2.7770   -1.6120 H   0  0  0  0  0
   -0.8440    4.3290   -0.7540 H   0  0  0  0  0
    1.3330    3.0490   -0.5150 H   0  0  0  0  0
    0.5550    3.5160    1.0140 H   0  0  0  0  0
   -2.8060   -0.6380    2.7010 H   0  0  0  0  0
   -2.8570   -1.5930    1.1920 H   0  0  0  0  0
   -0.4780   -0.8250    2.4200 H   0  0  0  0  0
   -0.6190   -1.0830    0.6490 H   0  0  0  0  0
   -0.9400    1.5440    2.2010 H   0  0  0  0  0
    1.3890   -0.4370    0.6490 H   0  0  0  0  0
    2.7510    2.1180   -0.6200 H   0  0  0  0  0
    5.0060    0.3370   -2.3270 H   0  0  0  0  0
    4.9140    1.8020   -1.3180 H   0  0  0  0  0
    2.4910   -1.4490    0.0330 H   0  0  0  0  0
    3.4230   -1.7830   -1.4490 H   0  0  0  0  0
    4.5040   -1.4030    1.3820 H   0  0  0  0  0
    5.3020   -3.6030    0.9030 H   0  0  0  0  0
    7.7640   -1.7610   -0.9980 H   0  0  0  0  0
    6.7030   -3.1870   -0.4130 H   0  0  0  0  0
    7.0140    0.3770   -0.9740 H   0  0  0  0  0
    6.7900    0.5730    1.4010 H   0  0  0  0  0
  1 28  1  0  0  0
  2  1  1  0  0  0
  2  3  1  0  0  0
  2 29  1  0  0  0
  2 30  1  0  0  0
  3  4  1  0  0  0
  3 31  1  0  0  0
  3 32  1  0  0  0
  4 33  1  0  0  0
  4 34  1  0  0  0
  5  6  1  0  0  0
  5  4  1  0  0  0
  5 35  1  0  0  0
  6 36  1  0  0  0
  6 37  1  0  0  0
  6 38  1  0  0  0
  7  5  1  0  0  0
  7 39  1  0  0  0
  8  7  1  0  0  0
  8 10  1  0  0  0
  9  8  1  0  0  0
  9 40  1  0  0  0
  9 41  1  0  0  0
  9 42  1  0  0  0
 10 43  1  0  0  0
 10 44  1  0  0  0
 11 10  1  0  0  0
 11 45  1  0  0  0
 11 46  1  0  0  0
 12 11  1  0  0  0
 12 47  1  0  0  0
 12 48  1  0  0  0
 13  7  1  0  0  0
 13 49  1  0  0  0
 13 50  1  0  0  0
 14 15  1  0  0  0
 14 13  1  0  0  0
 14 51  1  0  0  0
 14 52  1  0  0  0
 15  8  1  0  0  0
 15 53  1  0  0  0
 16 12  1  0  0  0
 16 15  1  0  0  0
 17 16  2  0  0  0
 17 54  1  0  0  0
 18 17  1  0  0  0
 18 55  1  0  0  0
 19 18  2  0  0  0
 20 19  1  0  0  0
 20 56  1  0  0  0
 20 57  1  0  0  0
 21 19  1  0  0  0
 21 58  1  0  0  0
 21 59  1  0  0  0
 22 21  1  0  0  0
 22 60  1  0  0  0
 23 22  1  0  0  0
 23 61  1  0  0  0
 24 26  1  0  0  0
 24 22  1  0  0  0
 25 24  2  0  0  0
 25 62  1  0  0  0
 25 63  1  0  0  0
 26 27  1  0  0  0
 26 20  1  0  0  0
 26 64  1  0  0  0
 27 65  1  0  0  0
M  END
$$$$
