YS3
  CCTOOLS-0919241040

 71 73  0  0  1  0  0  0  0  0999 V2000
    7.6990   -0.5780   -0.4490 O   0  0  0  0  0
    6.9060   -1.5190    0.2780 C   0  0  0  0  0
    6.4480   -2.6350   -0.6630 C   0  0  0  0  0
    7.7400   -2.1180    1.4130 C   0  0  0  0  0
    5.6830   -0.8110    0.8630 C   0  0  0  0  0
    4.7850   -0.3200   -0.2750 C   0  0  0  0  0
    3.5620    0.3880    0.3110 C   0  0  0  0  0
    4.0080    1.6520    1.0480 C   0  0  0  0  0
    2.6040    0.7690   -0.8200 C   0  0  0  0  0
    2.0530   -0.5050   -1.5120 C   0  0  0  0  0
    0.5030   -0.4250   -1.4050 C   0  0  0  0  0
    0.2530    1.0770   -1.2550 C   0  0  0  0  0
    1.3790    1.4750   -0.2590 C   0  0  0  0  0
    1.0540    0.9030    1.1220 C   0  0  0  0  0
    1.3980    2.9830   -0.1700 C   0  0  0  0  0
    0.1000    3.4240    0.5260 C   0  0  0  0  0
   -1.1380    2.9590   -0.2380 C   0  0  0  0  0
   -1.0300    1.4830   -0.5930 C   0  0  0  0  0
   -2.0030    0.6160   -0.3350 C   0  0  0  0  0
   -3.2410    1.0720    0.3180 C   0  0  0  0  0
   -4.1680    0.1890    0.6740 C   0  0  0  0  0
   -5.4990    0.6500    1.2230 C   0  0  0  0  0
   -3.9120   -1.2940    0.5340 C   0  0  0  0  0
   -5.0350   -1.9060   -0.3140 C   0  0  0  0  0
   -4.9580   -3.3320   -0.2540 O   0  0  0  0  0
   -6.3630   -1.4450    0.2400 C   0  0  0  0  0
   -7.2770   -2.3150    0.5920 C   0  0  0  0  0
   -6.6180    0.0340    0.3740 C   0  0  0  0  0
   -6.6260    0.6390   -0.9210 O   0  0  0  0  0
    8.4930   -0.9590   -0.8490 H   0  0  0  0  0
    7.3200   -3.1400   -1.0800 H   0  0  0  0  0
    5.8440   -3.3530   -0.1080 H   0  0  0  0  0
    5.8540   -2.2080   -1.4710 H   0  0  0  0  0
    8.0660   -1.3230    2.0830 H   0  0  0  0  0
    7.1350   -2.8360    1.9670 H   0  0  0  0  0
    8.6110   -2.6230    0.9960 H   0  0  0  0  0
    5.1260   -1.5070    1.4910 H   0  0  0  0  0
    6.0070    0.0390    1.4630 H   0  0  0  0  0
    5.3420    0.3760   -0.9020 H   0  0  0  0  0
    4.4610   -1.1700   -0.8740 H   0  0  0  0  0
    3.0540   -0.2790    1.0070 H   0  0  0  0  0
    4.5160    2.3190    0.3520 H   0  0  0  0  0
    3.1360    2.1570    1.4650 H   0  0  0  0  0
    4.6910    1.3810    1.8540 H   0  0  0  0  0
    3.1090    1.4070   -1.5450 H   0  0  0  0  0
    2.3550   -0.5240   -2.5590 H   0  0  0  0  0
    2.4170   -1.3960   -1.0000 H   0  0  0  0  0
    0.0340   -0.8060   -2.3120 H   0  0  0  0  0
    0.1480   -0.9680   -0.5290 H   0  0  0  0  0
    0.3700    1.5860   -2.2120 H   0  0  0  0  0
    1.8390    1.1840    1.8250 H   0  0  0  0  0
    0.1000    1.3020    1.4650 H   0  0  0  0  0
    0.9940   -0.1830    1.0600 H   0  0  0  0  0
    2.2600    3.3080    0.4130 H   0  0  0  0  0
    1.4450    3.4120   -1.1710 H   0  0  0  0  0
    0.0760    3.0030    1.5310 H   0  0  0  0  0
    0.0860    4.5110    0.5980 H   0  0  0  0  0
   -2.0220    3.1160    0.3810 H   0  0  0  0  0
   -1.2350    3.5430   -1.1530 H   0  0  0  0  0
   -1.8860   -0.4230   -0.6040 H   0  0  0  0  0
   -3.3960    2.1240    0.5060 H   0  0  0  0  0
   -5.6020    0.3230    2.2570 H   0  0  0  0  0
   -5.5580    1.7370    1.1730 H   0  0  0  0  0
   -2.9530   -1.4550    0.0410 H   0  0  0  0  0
   -3.9030   -1.7590    1.5190 H   0  0  0  0  0
   -4.9350   -1.5750   -1.3480 H   0  0  0  0  0
   -5.6410   -3.7840   -0.7690 H   0  0  0  0  0
   -7.0840   -3.3730    0.4870 H   0  0  0  0  0
   -8.2230   -1.9750    0.9870 H   0  0  0  0  0
   -7.5790    0.1950    0.8620 H   0  0  0  0  0
   -7.3110    0.2960   -1.5110 H   0  0  0  0  0
  1  2  1  0  0  0
  1 30  1  0  0  0
  2  4  1  0  0  0
  3  2  1  0  0  0
  3 31  1  0  0  0
  3 32  1  0  0  0
  3 33  1  0  0  0
  4 34  1  0  0  0
  4 35  1  0  0  0
  4 36  1  0  0  0
  5  2  1  0  0  0
  5  6  1  0  0  0
  5 37  1  0  0  0
  5 38  1  0  0  0
  6 39  1  0  0  0
  6 40  1  0  0  0
  7  6  1  0  0  0
  7  9  1  0  0  0
  7 41  1  0  0  0
  8  7  1  0  0  0
  8 42  1  0  0  0
  8 43  1  0  0  0
  8 44  1  0  0  0
  9 13  1  0  0  0
  9 10  1  0  0  0
  9 45  1  0  0  0
 10 11  1  0  0  0
 10 46  1  0  0  0
 10 47  1  0  0  0
 11 48  1  0  0  0
 11 49  1  0  0  0
 12 11  1  0  0  0
 12 18  1  0  0  0
 12 50  1  0  0  0
 13 12  1  0  0  0
 13 14  1  0  0  0
 14 51  1  0  0  0
 14 52  1  0  0  0
 14 53  1  0  0  0
 15 16  1  0  0  0
 15 13  1  0  0  0
 15 54  1  0  0  0
 15 55  1  0  0  0
 16 17  1  0  0  0
 16 56  1  0  0  0
 16 57  1  0  0  0
 17 18  1  0  0  0
 17 58  1  0  0  0
 17 59  1  0  0  0
 18 19  2  0  0  0
 19 20  1  0  0  0
 19 60  1  0  0  0
 20 21  2  0  0  0
 20 61  1  0  0  0
 21 22  1  0  0  0
 21 23  1  0  0  0
 22 28  1  0  0  0
 22 62  1  0  0  0
 22 63  1  0  0  0
 23 24  1  0  0  0
 23 64  1  0  0  0
 23 65  1  0  0  0
 24 26  1  0  0  0
 24 25  1  0  0  0
 24 66  1  0  0  0
 25 67  1  0  0  0
 26 27  2  0  0  0
 27 68  1  0  0  0
 27 69  1  0  0  0
 28 26  1  0  0  0
 28 70  1  0  0  0
 29 28  1  0  0  0
 29 71  1  0  0  0
M  END
$$$$
