YS4
  CCTOOLS-0919241040

 46 47  0  0  0  0  0  0  0  0999 V2000
   -5.2610   -0.5300   -0.0890 O   0  0  0  0  0
   -4.2260   -0.9020    0.9020 P   0  0  0  0  0
   -4.5960   -0.2620    2.3320 O   0  0  0  0  0
   -4.1600   -2.5050    1.0330 O   0  0  0  0  0
   -2.6060   -0.2700    0.3540 C   0  0  0  0  0
   -2.1860   -0.9950   -1.2650 P   0  0  0  0  0
   -0.7550   -0.4360   -1.7480 O   0  0  0  0  0
   -2.1200   -2.5980   -1.1340 O   0  0  0  0  0
   -3.2210   -0.6230   -2.2550 O   0  0  0  0  0
   -2.6660    1.1890    0.2350 N   0  0  0  0  0
   -1.4920    1.9280    0.1390 C   0  0  0  0  0
   -0.2660    1.2750    0.1560 C   0  0  0  0  0
   -1.5550    3.2460    0.0260 N   0  0  0  0  0
   -0.4690    3.9910   -0.0690 C   0  0  0  0  0
    0.7860    3.4210   -0.0550 C   0  0  0  0  0
    0.9020    2.0310    0.0580 C   0  0  0  0  0
    2.2340    1.3780    0.0780 C   0  0  0  0  0
    2.3310   -0.0090    0.1860 C   0  0  0  0  0
    3.5700   -0.6130    0.2030 C   0  0  0  0  0
    3.3910    2.1490   -0.0160 C   0  0  0  0  0
    4.6280    1.5400    0.0020 C   0  0  0  0  0
    4.7210    0.1590    0.1150 C   0  0  0  0  0
    5.9410   -0.4390    0.1330 O   0  0  0  0  0
    5.9630   -1.8680    0.1250 C   0  0  0  0  0
    7.2910   -2.3530   -0.4610 C   0  0  0  0  0
    5.8170   -2.3880    1.5560 C   0  0  0  0  0
   -3.9600   -0.4650    3.0300 H   0  0  0  0  0
   -4.9890   -2.9110    1.3210 H   0  0  0  0  0
   -1.8440   -0.5440    1.0840 H   0  0  0  0  0
   -0.7220    0.5250   -1.8490 H   0  0  0  0  0
   -2.9490   -3.0040   -0.8460 H   0  0  0  0  0
   -3.5250    1.6400    0.2230 H   0  0  0  0  0
   -0.2190    0.2000    0.2450 H   0  0  0  0  0
   -0.5650    5.0630   -0.1600 H   0  0  0  0  0
    1.6680    4.0390   -0.1330 H   0  0  0  0  0
    1.4360   -0.6090    0.2550 H   0  0  0  0  0
    3.6460   -1.6870    0.2870 H   0  0  0  0  0
    3.3190    3.2230   -0.1040 H   0  0  0  0  0
    5.5250    2.1370   -0.0710 H   0  0  0  0  0
    5.1390   -2.2400   -0.4830 H   0  0  0  0  0
    8.1150   -1.9810    0.1470 H   0  0  0  0  0
    7.3080   -3.4430   -0.4680 H   0  0  0  0  0
    7.3950   -1.9820   -1.4810 H   0  0  0  0  0
    5.8340   -3.4780    1.5500 H   0  0  0  0  0
    6.6410   -2.0160    2.1640 H   0  0  0  0  0
    4.8720   -2.0430    1.9740 H   0  0  0  0  0
  1  2  2  0  0  0
  2  3  1  0  0  0
  2  4  1  0  0  0
  3 27  1  0  0  0
  4 28  1  0  0  0
  5 10  1  0  0  0
  5  2  1  0  0  0
  5 29  1  0  0  0
  6  7  1  0  0  0
  6  5  1  0  0  0
  7 30  1  0  0  0
  8  6  1  0  0  0
  8 31  1  0  0  0
  9  6  2  0  0  0
 10 32  1  0  0  0
 11 10  1  0  0  0
 11 12  2  0  0  0
 12 33  1  0  0  0
 13 11  1  0  0  0
 14 13  2  0  0  0
 14 15  1  0  0  0
 14 34  1  0  0  0
 15 16  2  0  0  0
 15 35  1  0  0  0
 16 12  1  0  0  0
 16 17  1  0  0  0
 17 20  2  0  0  0
 18 19  2  0  0  0
 18 17  1  0  0  0
 18 36  1  0  0  0
 19 22  1  0  0  0
 19 37  1  0  0  0
 20 21  1  0  0  0
 20 38  1  0  0  0
 21 39  1  0  0  0
 22 23  1  0  0  0
 22 21  2  0  0  0
 23 24  1  0  0  0
 24 26  1  0  0  0
 24 40  1  0  0  0
 25 24  1  0  0  0
 25 41  1  0  0  0
 25 42  1  0  0  0
 25 43  1  0  0  0
 26 44  1  0  0  0
 26 45  1  0  0  0
 26 46  1  0  0  0
M  END
$$$$
