YS5
  CCTOOLS-0919241040

 89 91  0  0  1  0  0  0  0  0999 V2000
    6.2550    0.0310   -1.2580 C   0  0  0  0  0
    6.6680   -1.2310   -0.4900 C   0  0  0  0  0
    7.9090   -1.7200   -1.0030 O   0  0  0  0  0
    6.8270   -0.8760    0.9710 C   0  0  0  0  0
    7.9500   -1.1250    1.5990 C   0  0  0  0  0
    5.6680   -0.2290    1.6940 C   0  0  0  0  0
    4.5680   -1.1390    1.7480 O   0  0  0  0  0
    5.2560    1.0330    0.9270 C   0  0  0  0  0
    5.0960    0.6790   -0.5340 C   0  0  0  0  0
    3.9580    0.9320   -1.1710 C   0  0  0  0  0
    2.8000    1.4550   -0.4290 C   0  0  0  0  0
    1.6310    1.6040   -1.0420 C   0  0  0  0  0
    1.4280    1.2510   -2.5090 C   0  0  0  0  0
    0.2010    0.3590   -2.6850 C   0  0  0  0  0
   -1.0240    0.9190   -1.9430 C   0  0  0  0  0
   -0.6630    1.0200   -0.4790 C   0  0  0  0  0
   -0.0770   -0.3130   -0.0090 C   0  0  0  0  0
    0.4150    2.1250   -0.3360 C   0  0  0  0  0
    0.5050    2.2580    1.1860 C   0  0  0  0  0
   -0.9860    2.2050    1.6250 C   0  0  0  0  0
   -1.7400    1.4550    0.5020 C   0  0  0  0  0
   -2.4610    0.2340    1.0760 C   0  0  0  0  0
   -1.4890   -0.5720    1.9400 C   0  0  0  0  0
   -2.9700   -0.6430   -0.0700 C   0  0  0  0  0
   -4.1080    0.0780   -0.7960 C   0  0  0  0  0
   -5.0560    0.7000    0.2310 C   0  0  0  0  0
   -5.4790   -0.3640    1.2450 C   0  0  0  0  0
   -6.5530    0.2110    2.1710 C   0  0  0  0  0
   -4.3880    1.7660    0.9100 O   0  0  0  0  0
   -6.2940    1.2460   -0.4820 C   0  0  0  0  0
   -5.8640    2.2330   -1.5690 C   0  0  0  0  0
   -3.4840   -1.9700    0.4920 C   0  0  0  0  0
   -3.8950   -2.8870   -0.6610 C   0  0  0  0  0
   -4.2820   -4.2600   -0.1080 C   0  0  0  0  0
   -4.6930   -5.1780   -1.2610 C   0  0  0  0  0
    7.0950    0.7250   -1.2990 H   0  0  0  0  0
    5.9530   -0.2380   -2.2700 H   0  0  0  0  0
    5.8970   -1.9940   -0.5990 H   0  0  0  0  0
    8.2290   -2.5190   -0.5610 H   0  0  0  0  0
    8.7710   -1.5880    1.0730 H   0  0  0  0  0
    8.0530   -0.8680    2.6430 H   0  0  0  0  0
    5.9720    0.0380    2.7070 H   0  0  0  0  0
    4.7640   -1.9660    2.2090 H   0  0  0  0  0
    4.3090    1.4070    1.3180 H   0  0  0  0  0
    6.0250    1.7980    1.0380 H   0  0  0  0  0
    3.8830    0.7540   -2.2340 H   0  0  0  0  0
    2.9010    1.7170    0.6140 H   0  0  0  0  0
    1.2910    2.1680   -3.0820 H   0  0  0  0  0
    2.3090    0.7260   -2.8770 H   0  0  0  0  0
   -0.0320    0.2810   -3.7470 H   0  0  0  0  0
    0.4260   -0.6350   -2.2970 H   0  0  0  0  0
   -1.2730    1.9060   -2.3320 H   0  0  0  0  0
   -1.8720    0.2460   -2.0690 H   0  0  0  0  0
    0.8400   -0.5210   -0.5610 H   0  0  0  0  0
    0.1450   -0.2560    1.0560 H   0  0  0  0  0
   -0.7990   -1.1100   -0.1890 H   0  0  0  0  0
    0.0800    3.0570   -0.7930 H   0  0  0  0  0
    1.0630    1.4260    1.6140 H   0  0  0  0  0
    0.9590    3.2090    1.4640 H   0  0  0  0  0
   -1.0800    1.6650    2.5660 H   0  0  0  0  0
   -1.3800    3.2160    1.7320 H   0  0  0  0  0
   -2.4520    2.1200    0.0120 H   0  0  0  0  0
   -3.3030    0.5620    1.6850 H   0  0  0  0  0
   -0.8850   -1.2170    1.3030 H   0  0  0  0  0
   -0.8390    0.1100    2.4880 H   0  0  0  0  0
   -2.0520   -1.1830    2.6460 H   0  0  0  0  0
   -2.1570   -0.8350   -0.7700 H   0  0  0  0  0
   -3.6950    0.8620   -1.4310 H   0  0  0  0  0
   -4.6570   -0.6360   -1.4110 H   0  0  0  0  0
   -5.8790   -1.2300    0.7180 H   0  0  0  0  0
   -4.6140   -0.6670    1.8360 H   0  0  0  0  0
   -6.1860    1.1310    2.6260 H   0  0  0  0  0
   -7.4520    0.4250    1.5940 H   0  0  0  0  0
   -6.7850   -0.5130    2.9520 H   0  0  0  0  0
   -4.1880    2.5270    0.3470 H   0  0  0  0  0
   -6.8450    0.4220   -0.9360 H   0  0  0  0  0
   -6.9330    1.7560    0.2390 H   0  0  0  0  0
   -6.7390    2.5610   -2.1290 H   0  0  0  0  0
   -5.3830    3.0960   -1.1070 H   0  0  0  0  0
   -5.1620    1.7450   -2.2450 H   0  0  0  0  0
   -2.6950   -2.4470    1.0730 H   0  0  0  0  0
   -4.3460   -1.7840    1.1330 H   0  0  0  0  0
   -4.7460   -2.4540   -1.1860 H   0  0  0  0  0
   -3.0600   -2.9970   -1.3530 H   0  0  0  0  0
   -3.4300   -4.6940    0.4160 H   0  0  0  0  0
   -5.1170   -4.1500    0.5840 H   0  0  0  0  0
   -3.8580   -5.2880   -1.9530 H   0  0  0  0  0
   -4.9680   -6.1560   -0.8670 H   0  0  0  0  0
   -5.5440   -4.7440   -1.7850 H   0  0  0  0  0
  1  2  1  0  0  0
  1 36  1  0  0  0
  1 37  1  0  0  0
  2  4  1  0  0  0
  2 38  1  0  0  0
  3  2  1  0  0  0
  3 39  1  0  0  0
  4  5  2  0  0  0
  5 40  1  0  0  0
  5 41  1  0  0  0
  6  4  1  0  0  0
  6  7  1  0  0  0
  6 42  1  0  0  0
  7 43  1  0  0  0
  8  6  1  0  0  0
  8 44  1  0  0  0
  8 45  1  0  0  0
  9  1  1  0  0  0
  9  8  1  0  0  0
 10  9  2  0  0  0
 10 46  1  0  0  0
 11 10  1  0  0  0
 11 47  1  0  0  0
 12 11  2  0  0  0
 13 12  1  0  0  0
 13 48  1  0  0  0
 13 49  1  0  0  0
 14 13  1  0  0  0
 14 50  1  0  0  0
 14 51  1  0  0  0
 15 14  1  0  0  0
 15 16  1  0  0  0
 15 52  1  0  0  0
 15 53  1  0  0  0
 16 18  1  0  0  0
 16 17  1  0  0  0
 17 54  1  0  0  0
 17 55  1  0  0  0
 17 56  1  0  0  0
 18 12  1  0  0  0
 18 19  1  0  0  0
 18 57  1  0  0  0
 19 58  1  0  0  0
 19 59  1  0  0  0
 20 19  1  0  0  0
 20 60  1  0  0  0
 20 61  1  0  0  0
 21 16  1  0  0  0
 21 20  1  0  0  0
 21 62  1  0  0  0
 22 21  1  0  0  0
 22 63  1  0  0  0
 23 22  1  0  0  0
 23 64  1  0  0  0
 23 65  1  0  0  0
 23 66  1  0  0  0
 24 22  1  0  0  0
 24 67  1  0  0  0
 25 24  1  0  0  0
 25 26  1  0  0  0
 25 68  1  0  0  0
 25 69  1  0  0  0
 26 30  1  0  0  0
 27 26  1  0  0  0
 27 28  1  0  0  0
 27 70  1  0  0  0
 27 71  1  0  0  0
 28 72  1  0  0  0
 28 73  1  0  0  0
 28 74  1  0  0  0
 29 26  1  0  0  0
 29 75  1  0  0  0
 30 31  1  0  0  0
 30 76  1  0  0  0
 30 77  1  0  0  0
 31 78  1  0  0  0
 31 79  1  0  0  0
 31 80  1  0  0  0
 32 33  1  0  0  0
 32 24  1  0  0  0
 32 81  1  0  0  0
 32 82  1  0  0  0
 33 83  1  0  0  0
 33 84  1  0  0  0
 34 35  1  0  0  0
 34 33  1  0  0  0
 34 85  1  0  0  0
 34 86  1  0  0  0
 35 87  1  0  0  0
 35 88  1  0  0  0
 35 89  1  0  0  0
M  END
$$$$
