YSD
  CCTOOLS-0919241040

 77 79  0  0  1  0  0  0  0  0999 V2000
    7.1130    3.1890    1.0020 C   0  0  0  0  0
    5.9140    2.3590    0.5370 C   0  0  0  0  0
    6.4120    1.1040   -0.1830 C   0  0  0  0  0
    7.3530    1.5070   -1.3200 C   0  0  0  0  0
    7.8400    0.2530   -2.0480 C   0  0  0  0  0
    7.1130    0.2700    0.7420 O   0  0  0  0  0
    5.2180    0.3380   -0.7560 C   0  0  0  0  0
    4.2780   -0.0680    0.3810 C   0  0  0  0  0
    3.0270   -0.7270   -0.2020 C   0  0  0  0  0
    3.4150   -2.0360   -0.8930 C   0  0  0  0  0
    2.0330   -1.0200    0.9230 C   0  0  0  0  0
    1.5410    0.3040    1.5660 C   0  0  0  0  0
   -0.0080    0.3040    1.4360 C   0  0  0  0  0
   -0.3380   -1.1870    1.3290 C   0  0  0  0  0
    0.7800   -1.6760    0.3650 C   0  0  0  0  0
    0.5080   -1.1320   -1.0390 C   0  0  0  0  0
    0.7190   -3.1850    0.3230 C   0  0  0  0  0
   -0.5910   -3.5770   -0.3810 C   0  0  0  0  0
   -1.8140   -3.0230    0.3470 C   0  0  0  0  0
   -1.6310   -1.5440    0.6580 C   0  0  0  0  0
   -2.5520   -0.6340    0.3570 C   0  0  0  0  0
   -3.8020   -1.0430   -0.3010 C   0  0  0  0  0
   -4.6760   -0.1240   -0.6980 C   0  0  0  0  0
   -4.3360    1.3470   -0.6130 C   0  0  0  0  0
   -6.0240   -0.5300   -1.2470 C   0  0  0  0  0
   -7.1170    0.1730   -0.4320 C   0  0  0  0  0
   -7.1720   -0.3890    0.8810 O   0  0  0  0  0
   -6.7800    1.6440   -0.3420 C   0  0  0  0  0
   -7.6410    2.5500   -0.7320 C   0  0  0  0  0
   -5.4250    2.0540    0.2040 C   0  0  0  0  0
   -5.2680    3.4700    0.0890 O   0  0  0  0  0
    7.7110    3.4780    0.1390 H   0  0  0  0  0
    6.7580    4.0830    1.5150 H   0  0  0  0  0
    7.7220    2.5960    1.6840 H   0  0  0  0  0
    5.3160    2.0690    1.4010 H   0  0  0  0  0
    5.3050    2.9520   -0.1450 H   0  0  0  0  0
    6.8210    2.1510   -2.0210 H   0  0  0  0  0
    8.2080    2.0450   -0.9100 H   0  0  0  0  0
    8.5830    0.5320   -2.7950 H   0  0  0  0  0
    8.2880   -0.4330   -1.3290 H   0  0  0  0  0
    6.9970   -0.2340   -2.5380 H   0  0  0  0  0
    6.5760   -0.0240    1.4910 H   0  0  0  0  0
    4.6820    0.9750   -1.4610 H   0  0  0  0  0
    5.5720   -0.5550   -1.2710 H   0  0  0  0  0
    4.7870   -0.7720    1.0390 H   0  0  0  0  0
    3.9910    0.8180    0.9480 H   0  0  0  0  0
    2.5670   -0.0560   -0.9280 H   0  0  0  0  0
    4.1230   -1.8270   -1.6950 H   0  0  0  0  0
    3.8750   -2.7070   -0.1680 H   0  0  0  0  0
    2.5230   -2.5060   -1.3080 H   0  0  0  0  0
    2.4920   -1.6600    1.6760 H   0  0  0  0  0
    1.8290    0.3400    2.6170 H   0  0  0  0  0
    1.9620    1.1570    1.0330 H   0  0  0  0  0
   -0.4700    0.7390    2.3220 H   0  0  0  0  0
   -0.3200    0.8370    0.5380 H   0  0  0  0  0
   -0.2630   -1.6700    2.3030 H   0  0  0  0  0
    1.2850   -1.4780   -1.7200 H   0  0  0  0  0
   -0.4630   -1.4870   -1.3850 H   0  0  0  0  0
    0.5070   -0.0420   -1.0120 H   0  0  0  0  0
    1.5700   -3.5750   -0.2360 H   0  0  0  0  0
    0.7270   -3.5840    1.3370 H   0  0  0  0  0
   -0.5770   -3.1880   -1.3990 H   0  0  0  0  0
   -0.6630   -4.6640   -0.4190 H   0  0  0  0  0
   -2.6950   -3.1510   -0.2810 H   0  0  0  0  0
   -1.9550   -3.5700    1.2790 H   0  0  0  0  0
   -2.3820    0.4050    0.5950 H   0  0  0  0  0
   -4.0100   -2.0910   -0.4620 H   0  0  0  0  0
   -3.3710    1.4720   -0.1210 H   0  0  0  0  0
   -4.2970    1.7720   -1.6160 H   0  0  0  0  0
   -6.0980   -0.2310   -2.2930 H   0  0  0  0  0
   -6.1430   -1.6100   -1.1640 H   0  0  0  0  0
   -8.0800    0.0480   -0.9270 H   0  0  0  0  0
   -7.8430    0.0100    1.4510 H   0  0  0  0  0
   -8.6020    2.2490   -1.1230 H   0  0  0  0  0
   -7.3910    3.5990   -0.6630 H   0  0  0  0  0
   -5.3480    1.7580    1.2500 H   0  0  0  0  0
   -5.9250    3.9800    0.5820 H   0  0  0  0  0
  1 32  1  0  0  0
  1 33  1  0  0  0
  1 34  1  0  0  0
  2  1  1  0  0  0
  2  3  1  0  0  0
  2 35  1  0  0  0
  2 36  1  0  0  0
  3  4  1  0  0  0
  4  5  1  0  0  0
  4 37  1  0  0  0
  4 38  1  0  0  0
  5 39  1  0  0  0
  5 40  1  0  0  0
  5 41  1  0  0  0
  6  3  1  0  0  0
  6 42  1  0  0  0
  7  3  1  0  0  0
  7  8  1  0  0  0
  7 43  1  0  0  0
  7 44  1  0  0  0
  8 45  1  0  0  0
  8 46  1  0  0  0
  9  8  1  0  0  0
  9 11  1  0  0  0
  9 47  1  0  0  0
 10  9  1  0  0  0
 10 48  1  0  0  0
 10 49  1  0  0  0
 10 50  1  0  0  0
 11 15  1  0  0  0
 11 12  1  0  0  0
 11 51  1  0  0  0
 12 13  1  0  0  0
 12 52  1  0  0  0
 12 53  1  0  0  0
 13 54  1  0  0  0
 13 55  1  0  0  0
 14 13  1  0  0  0
 14 20  1  0  0  0
 14 56  1  0  0  0
 15 14  1  0  0  0
 15 16  1  0  0  0
 16 57  1  0  0  0
 16 58  1  0  0  0
 16 59  1  0  0  0
 17 18  1  0  0  0
 17 15  1  0  0  0
 17 60  1  0  0  0
 17 61  1  0  0  0
 18 19  1  0  0  0
 18 62  1  0  0  0
 18 63  1  0  0  0
 19 20  1  0  0  0
 19 64  1  0  0  0
 19 65  1  0  0  0
 20 21  2  0  0  0
 21 22  1  0  0  0
 21 66  1  0  0  0
 22 23  2  0  0  0
 22 67  1  0  0  0
 23 25  1  0  0  0
 23 24  1  0  0  0
 24 30  1  0  0  0
 24 68  1  0  0  0
 24 69  1  0  0  0
 25 26  1  0  0  0
 25 70  1  0  0  0
 25 71  1  0  0  0
 26 28  1  0  0  0
 26 72  1  0  0  0
 27 26  1  0  0  0
 27 73  1  0  0  0
 28 29  2  0  0  0
 29 74  1  0  0  0
 29 75  1  0  0  0
 30 28  1  0  0  0
 30 31  1  0  0  0
 30 76  1  0  0  0
 31 77  1  0  0  0
M  END
$$$$
