YSE
  CCTOOLS-0919241040

 71 73  0  0  1  0  0  0  0  0999 V2000
   -5.8710   -3.1980   -2.1460 O   0  0  0  0  0
   -4.9960   -2.4610   -1.2900 C   0  0  0  0  0
   -5.7980   -1.4050   -0.5270 C   0  0  0  0  0
   -4.8880   -0.7050    0.4840 C   0  0  0  0  0
   -5.7170    0.2600    1.3340 C   0  0  0  0  0
   -6.6970   -0.5340    2.1990 C   0  0  0  0  0
   -3.8030    0.0750   -0.2610 C   0  0  0  0  0
   -4.4540    1.1580   -1.1240 C   0  0  0  0  0
   -2.8580    0.7270    0.7500 C   0  0  0  0  0
   -2.2400   -0.3480    1.6810 C   0  0  0  0  0
   -0.6970   -0.2180    1.5350 C   0  0  0  0  0
   -0.5230    1.2310    1.0730 C   0  0  0  0  0
   -1.6750    1.3610    0.0350 C   0  0  0  0  0
   -1.3320    0.5310   -1.2040 C   0  0  0  0  0
   -1.7690    2.8160   -0.3630 C   0  0  0  0  0
   -0.4980    3.1620   -1.1570 C   0  0  0  0  0
    0.7670    2.9240   -0.3350 C   0  0  0  0  0
    0.7340    1.5510    0.3200 C   0  0  0  0  0
    1.7470    0.6960    0.2300 C   0  0  0  0  0
    2.9560    1.0640   -0.5230 C   0  0  0  0  0
    3.9240    0.1710   -0.7030 C   0  0  0  0  0
    5.2290    0.5720   -1.3530 C   0  0  0  0  0
    3.7420   -1.2610   -0.2570 C   0  0  0  0  0
    4.8970   -1.6310    0.6830 C   0  0  0  0  0
    4.8890   -3.0400    0.9220 O   0  0  0  0  0
    6.1990   -1.2320    0.0280 C   0  0  0  0  0
    7.1550   -2.1090   -0.1510 C   0  0  0  0  0
    6.3800    0.1990   -0.4110 C   0  0  0  0  0
    6.3690    1.0560    0.7320 O   0  0  0  0  0
   -5.4290   -3.8860   -2.6620 H   0  0  0  0  0
   -4.5230   -3.1410   -0.5810 H   0  0  0  0  0
   -4.2280   -1.9710   -1.8900 H   0  0  0  0  0
   -6.1940   -0.6710   -1.2290 H   0  0  0  0  0
   -6.6230   -1.8860   -0.0010 H   0  0  0  0  0
   -4.4220   -1.4490    1.1300 H   0  0  0  0  0
   -5.0540    0.8410    1.9750 H   0  0  0  0  0
   -6.2720    0.9340    0.6810 H   0  0  0  0  0
   -7.3420    0.1550    2.7440 H   0  0  0  0  0
   -7.3060   -1.1760    1.5620 H   0  0  0  0  0
   -6.1410   -1.1490    2.9070 H   0  0  0  0  0
   -3.2390   -0.6070   -0.8980 H   0  0  0  0  0
   -5.0180    1.8390   -0.4860 H   0  0  0  0  0
   -3.6810    1.7130   -1.6550 H   0  0  0  0  0
   -5.1270    0.6930   -1.8440 H   0  0  0  0  0
   -3.3910    1.4750    1.3370 H   0  0  0  0  0
   -2.5350   -0.1630    2.7140 H   0  0  0  0  0
   -2.5630   -1.3420    1.3720 H   0  0  0  0  0
   -0.2020   -0.3800    2.4930 H   0  0  0  0  0
   -0.3220   -0.9110    0.7830 H   0  0  0  0  0
   -0.6690    1.9210    1.9030 H   0  0  0  0  0
   -1.3250   -0.5270   -0.9420 H   0  0  0  0  0
   -2.0790    0.7090   -1.9780 H   0  0  0  0  0
   -0.3490    0.8210   -1.5750 H   0  0  0  0  0
   -2.6490    2.9730   -0.9860 H   0  0  0  0  0
   -1.8310    3.4400    0.5280 H   0  0  0  0  0
   -0.4600    2.5440   -2.0540 H   0  0  0  0  0
   -0.5380    4.2120   -1.4510 H   0  0  0  0  0
    1.6370    2.9900   -0.9880 H   0  0  0  0  0
    0.8400    3.6880    0.4400 H   0  0  0  0  0
    1.6830   -0.2700    0.7100 H   0  0  0  0  0
    3.0570    2.0590   -0.9300 H   0  0  0  0  0
    5.3440    0.0440   -2.2990 H   0  0  0  0  0
    5.2330    1.6480   -1.5320 H   0  0  0  0  0
    2.7940   -1.3630    0.2710 H   0  0  0  0  0
    3.7500   -1.9190   -1.1260 H   0  0  0  0  0
    4.7850   -1.0990    1.6280 H   0  0  0  0  0
    5.5940   -3.3430    1.5100 H   0  0  0  0  0
    8.0830   -1.8100   -0.6160 H   0  0  0  0  0
    7.0160   -3.1320    0.1670 H   0  0  0  0  0
    7.3290    0.3030   -0.9370 H   0  0  0  0  0
    7.0670    0.8650    1.3740 H   0  0  0  0  0
  1 30  1  0  0  0
  2  1  1  0  0  0
  2  3  1  0  0  0
  2 31  1  0  0  0
  2 32  1  0  0  0
  3 33  1  0  0  0
  3 34  1  0  0  0
  4  3  1  0  0  0
  4  5  1  0  0  0
  4 35  1  0  0  0
  5  6  1  0  0  0
  5 36  1  0  0  0
  5 37  1  0  0  0
  6 38  1  0  0  0
  6 39  1  0  0  0
  6 40  1  0  0  0
  7  4  1  0  0  0
  7  8  1  0  0  0
  7 41  1  0  0  0
  8 42  1  0  0  0
  8 43  1  0  0  0
  8 44  1  0  0  0
  9  7  1  0  0  0
  9 45  1  0  0  0
 10  9  1  0  0  0
 10 46  1  0  0  0
 10 47  1  0  0  0
 11 12  1  0  0  0
 11 10  1  0  0  0
 11 48  1  0  0  0
 11 49  1  0  0  0
 12 13  1  0  0  0
 12 50  1  0  0  0
 13  9  1  0  0  0
 13 15  1  0  0  0
 14 13  1  0  0  0
 14 51  1  0  0  0
 14 52  1  0  0  0
 14 53  1  0  0  0
 15 54  1  0  0  0
 15 55  1  0  0  0
 16 15  1  0  0  0
 16 56  1  0  0  0
 16 57  1  0  0  0
 17 16  1  0  0  0
 17 58  1  0  0  0
 17 59  1  0  0  0
 18 17  1  0  0  0
 18 12  1  0  0  0
 19 18  2  0  0  0
 19 60  1  0  0  0
 20 19  1  0  0  0
 20 61  1  0  0  0
 21 20  2  0  0  0
 22 21  1  0  0  0
 22 62  1  0  0  0
 22 63  1  0  0  0
 23 21  1  0  0  0
 23 64  1  0  0  0
 23 65  1  0  0  0
 24 23  1  0  0  0
 24 66  1  0  0  0
 25 24  1  0  0  0
 25 67  1  0  0  0
 26 28  1  0  0  0
 26 24  1  0  0  0
 27 26  2  0  0  0
 27 68  1  0  0  0
 27 69  1  0  0  0
 28 29  1  0  0  0
 28 22  1  0  0  0
 28 70  1  0  0  0
 29 71  1  0  0  0
M  END
$$$$
