YSL
  CCTOOLS-0919241040

 83 85  0  0  1  0  0  0  0  0999 V2000
   -4.1110   -3.9380   -2.6760 O   0  0  0  0  0
   -3.4370   -2.9840   -1.8530 C   0  0  0  0  0
   -4.3890   -1.8310   -1.5250 C   0  0  0  0  0
   -3.7120   -0.8760   -0.5400 C   0  0  0  0  0
   -4.7070    0.2050   -0.1120 C   0  0  0  0  0
   -5.8540   -0.4380    0.6700 C   0  0  0  0  0
   -6.8490    0.6430    1.0970 C   0  0  0  0  0
   -7.9960   -0.0000    1.8790 C   0  0  0  0  0
   -8.9910    1.0810    2.3060 C   0  0  0  0  0
  -10.1380    0.4380    3.0880 C   0  0  0  0  0
   -2.5040   -0.2210   -1.2120 C   0  0  0  0  0
   -2.9800    0.6540   -2.3740 C   0  0  0  0  0
   -1.7600    0.6450   -0.1930 C   0  0  0  0  0
   -0.4770    1.1900   -0.8000 C   0  0  0  0  0
    0.0900    0.1670   -1.7860 C   0  0  0  0  0
   -0.5190    2.5430   -1.4710 C   0  0  0  0  0
    0.8670    2.7980   -2.0870 C   0  0  0  0  0
    1.9700    2.7710   -1.0320 C   0  0  0  0  0
    1.8410    1.5370   -0.1490 C   0  0  0  0  0
    0.4760    1.3020    0.4240 C   0  0  0  0  0
    0.2410   -0.0460    1.1100 C   0  0  0  0  0
   -1.3010   -0.2170    1.0130 C   0  0  0  0  0
    2.8650    0.7270    0.0950 C   0  0  0  0  0
    4.1830    1.0080   -0.4950 C   0  0  0  0  0
    5.1790    0.1420   -0.3400 C   0  0  0  0  0
    6.5720    0.4770   -0.8220 C   0  0  0  0  0
    7.5450    0.3320    0.3540 C   0  0  0  0  0
    7.3190    1.3810    1.2970 O   0  0  0  0  0
    7.3060   -1.0060    1.0160 C   0  0  0  0  0
    8.2870   -1.8600    1.1690 C   0  0  0  0  0
    5.9120   -1.3410    1.4980 C   0  0  0  0  0
    5.8830   -2.6850    1.9820 O   0  0  0  0  0
    4.9400   -1.1930    0.3270 C   0  0  0  0  0
   -3.5660   -4.6980   -2.9240 H   0  0  0  0  0
   -3.1150   -3.4640   -0.9290 H   0  0  0  0  0
   -2.5670   -2.5970   -2.3840 H   0  0  0  0  0
   -4.6370   -1.2930   -2.4400 H   0  0  0  0  0
   -5.3000   -2.2280   -1.0790 H   0  0  0  0  0
   -3.3820   -1.4330    0.3370 H   0  0  0  0  0
   -4.2010    0.9350    0.5190 H   0  0  0  0  0
   -5.1040    0.7030   -0.9970 H   0  0  0  0  0
   -6.3600   -1.1680    0.0380 H   0  0  0  0  0
   -5.4560   -0.9360    1.5540 H   0  0  0  0  0
   -6.3430    1.3730    1.7290 H   0  0  0  0  0
   -7.2460    1.1410    0.2130 H   0  0  0  0  0
   -8.5020   -0.7300    1.2470 H   0  0  0  0  0
   -7.5980   -0.4980    2.7630 H   0  0  0  0  0
   -8.4850    1.8110    2.9380 H   0  0  0  0  0
   -9.3880    1.5790    1.4220 H   0  0  0  0  0
   -9.7400   -0.0600    3.9730 H   0  0  0  0  0
  -10.8470    1.2080    3.3920 H   0  0  0  0  0
  -10.6440   -0.2920    2.4570 H   0  0  0  0  0
   -1.8350   -0.9940   -1.5900 H   0  0  0  0  0
   -2.1190    1.1210   -2.8530 H   0  0  0  0  0
   -3.5100    0.0380   -3.1000 H   0  0  0  0  0
   -3.6490    1.4270   -1.9960 H   0  0  0  0  0
   -2.3970    1.4620    0.1450 H   0  0  0  0  0
   -0.5730    0.0860   -2.6470 H   0  0  0  0  0
    1.0770    0.4890   -2.1170 H   0  0  0  0  0
    0.1710   -0.8040   -1.2960 H   0  0  0  0  0
   -1.2780    2.5440   -2.2540 H   0  0  0  0  0
   -0.7440    3.3140   -0.7350 H   0  0  0  0  0
    1.0710    2.0300   -2.8340 H   0  0  0  0  0
    0.8650    3.7730   -2.5740 H   0  0  0  0  0
    2.9410    2.7580   -1.5270 H   0  0  0  0  0
    1.8960    3.6640   -0.4120 H   0  0  0  0  0
    0.1770    2.1230    1.0760 H   0  0  0  0  0
    0.7530   -0.8460    0.5740 H   0  0  0  0  0
    0.5640   -0.0120    2.1500 H   0  0  0  0  0
   -1.7760    0.1370    1.9280 H   0  0  0  0  0
   -1.5520   -1.2640    0.8410 H   0  0  0  0  0
    2.7300   -0.1380    0.7270 H   0  0  0  0  0
    4.3410    1.9180   -1.0540 H   0  0  0  0  0
    6.8580   -0.2080   -1.6210 H   0  0  0  0  0
    6.5950    1.5020   -1.1920 H   0  0  0  0  0
    8.5710    0.3800   -0.0120 H   0  0  0  0  0
    7.9010    1.3500    2.0680 H   0  0  0  0  0
    9.2790   -1.6100    0.8220 H   0  0  0  0  0
    8.1050   -2.8120    1.6440 H   0  0  0  0  0
    5.6280   -0.6580    2.2990 H   0  0  0  0  0
    6.4860   -2.8510    2.7200 H   0  0  0  0  0
    3.9160   -1.2400    0.6960 H   0  0  0  0  0
    5.1110   -1.9970   -0.3900 H   0  0  0  0  0
  1  2  1  0  0  0
  1 34  1  0  0  0
  2 35  1  0  0  0
  2 36  1  0  0  0
  3  4  1  0  0  0
  3  2  1  0  0  0
  3 37  1  0  0  0
  3 38  1  0  0  0
  4 11  1  0  0  0
  4 39  1  0  0  0
  5  4  1  0  0  0
  5 40  1  0  0  0
  5 41  1  0  0  0
  6  5  1  0  0  0
  6 42  1  0  0  0
  6 43  1  0  0  0
  7  6  1  0  0  0
  7 44  1  0  0  0
  7 45  1  0  0  0
  8  9  1  0  0  0
  8  7  1  0  0  0
  8 46  1  0  0  0
  8 47  1  0  0  0
  9 48  1  0  0  0
  9 49  1  0  0  0
 10  9  1  0  0  0
 10 50  1  0  0  0
 10 51  1  0  0  0
 10 52  1  0  0  0
 11 13  1  0  0  0
 11 53  1  0  0  0
 12 11  1  0  0  0
 12 54  1  0  0  0
 12 55  1  0  0  0
 12 56  1  0  0  0
 13 14  1  0  0  0
 13 22  1  0  0  0
 13 57  1  0  0  0
 14 20  1  0  0  0
 14 15  1  0  0  0
 15 58  1  0  0  0
 15 59  1  0  0  0
 15 60  1  0  0  0
 16 17  1  0  0  0
 16 14  1  0  0  0
 16 61  1  0  0  0
 16 62  1  0  0  0
 17 18  1  0  0  0
 17 63  1  0  0  0
 17 64  1  0  0  0
 18 19  1  0  0  0
 18 65  1  0  0  0
 18 66  1  0  0  0
 19 23  2  0  0  0
 20 21  1  0  0  0
 20 19  1  0  0  0
 20 67  1  0  0  0
 21 68  1  0  0  0
 21 69  1  0  0  0
 22 21  1  0  0  0
 22 70  1  0  0  0
 22 71  1  0  0  0
 23 24  1  0  0  0
 23 72  1  0  0  0
 24 25  2  0  0  0
 24 73  1  0  0  0
 25 26  1  0  0  0
 25 33  1  0  0  0
 26 27  1  0  0  0
 26 74  1  0  0  0
 26 75  1  0  0  0
 27 29  1  0  0  0
 27 76  1  0  0  0
 28 27  1  0  0  0
 28 77  1  0  0  0
 29 30  2  0  0  0
 30 78  1  0  0  0
 30 79  1  0  0  0
 31 29  1  0  0  0
 31 32  1  0  0  0
 31 80  1  0  0  0
 32 81  1  0  0  0
 33 31  1  0  0  0
 33 82  1  0  0  0
 33 83  1  0  0  0
M  END
$$$$
