YX0
  CCTOOLS-0919241041

 39 40  0  0  1  0  0  0  0  0999 V2000
   -1.7410   -0.4480   -1.2050 C   0  0  0  0  0
   -2.6570   -1.4000   -0.4320 C   0  0  0  0  0
   -2.9030   -0.8340    0.9700 C   0  0  0  0  0
   -3.4990    0.5720    0.8430 C   0  0  0  0  0
   -2.5500    1.4470    0.0210 C   0  0  0  0  0
   -3.1660    2.8360   -0.1610 C   0  0  0  0  0
   -0.4770   -0.3620   -0.5440 O   0  0  0  0  0
   -2.0340   -2.6820   -0.3260 O   0  0  0  0  0
   -3.8160   -1.6780    1.6740 O   0  0  0  0  0
   -4.7660    0.4960    0.1890 O   0  0  0  0  0
   -2.3400    0.8480   -1.2590 O   0  0  0  0  0
    5.7300   -0.9220   -0.9030 O   0  0  0  0  0
    5.2280   -0.2400    0.1650 C   0  0  0  0  0
    6.1200    0.0910    1.3340 C   0  0  0  0  0
    3.9370    0.1380    0.1750 C   0  0  0  0  0
    2.9320   -0.1000   -0.8750 C   0  0  0  0  0
    1.7820    0.4390   -0.4640 C   0  0  0  0  0
    0.4950    0.4160   -1.2470 C   0  0  0  0  0
    1.9330    1.0050    0.7480 O   0  0  0  0  0
    3.2680    0.8340    1.1880 N   0  0  0  0  0
   -1.5970   -0.8250   -2.2180 H   0  0  0  0  0
   -3.6070   -1.4980   -0.9570 H   0  0  0  0  0
   -1.9590   -0.7820    1.5130 H   0  0  0  0  0
   -1.8440   -3.0990   -1.1780 H   0  0  0  0  0
   -3.6250    1.0040    1.8360 H   0  0  0  0  0
   -3.5050   -2.5870    1.7850 H   0  0  0  0  0
   -1.5960    1.5380    0.5410 H   0  0  0  0  0
   -5.2020    1.3510    0.0750 H   0  0  0  0  0
   -3.3270    3.2930    0.8150 H   0  0  0  0  0
   -2.4900    3.4600   -0.7470 H   0  0  0  0  0
   -4.1190    2.7450   -0.6820 H   0  0  0  0  0
    0.6740   -0.0260   -2.2280 H   0  0  0  0  0
    0.1250    1.4340   -1.3690 H   0  0  0  0  0
    5.0830   -1.0880   -1.6030 H   0  0  0  0  0
    6.5910    1.0600    1.1680 H   0  0  0  0  0
    5.5240    0.1290    2.2460 H   0  0  0  0  0
    6.8880   -0.6750    1.4330 H   0  0  0  0  0
    3.0960   -0.6170   -1.8080 H   0  0  0  0  0
    3.6460    1.1420    2.0270 H   0  0  0  0  0
  1  2  1  0  0  0
  1  7  1  0  0  0
  1 11  1  0  0  0
  1 21  1  0  0  0
  2  3  1  0  0  0
  2  8  1  0  0  0
  2 22  1  0  0  0
  3  4  1  0  0  0
  3  9  1  0  0  0
  3 23  1  0  0  0
  4  5  1  0  0  0
  4 10  1  0  0  0
  4 25  1  0  0  0
  5  6  1  0  0  0
  5 11  1  0  0  0
  5 27  1  0  0  0
  6 29  1  0  0  0
  6 30  1  0  0  0
  6 31  1  0  0  0
  7 18  1  0  0  0
  8 24  1  0  0  0
  9 26  1  0  0  0
 10 28  1  0  0  0
 12 13  1  0  0  0
 12 34  1  0  0  0
 13 14  1  0  0  0
 13 15  2  0  0  0
 14 35  1  0  0  0
 14 36  1  0  0  0
 14 37  1  0  0  0
 15 16  1  0  0  0
 15 20  1  0  0  0
 16 17  2  0  0  0
 16 38  1  0  0  0
 17 18  1  0  0  0
 17 19  1  0  0  0
 18 32  1  0  0  0
 18 33  1  0  0  0
 19 20  1  0  0  0
 20 39  1  0  0  0
M  END
$$$$
