YYG
  CCTOOLS-0919241041

 69 72  0  0  1  0  0  0  0  0999 V2000
    1.6820   -0.1270   -8.5920 P   0  0  0  0  0
    2.4670    1.0730   -8.2280 O   0  0  0  0  0
    2.6800   -1.2920   -9.0810 O   0  0  0  0  0
    0.6610    0.2380   -9.7820 O   0  0  0  0  0
    0.8520   -0.6350   -7.3100 O   0  0  0  0  0
   -0.0100    0.4370   -6.9250 C   0  0  0  0  0
   -0.8330    0.0170   -5.7050 C   0  0  0  0  0
    0.0360   -0.2720   -4.5890 O   0  0  0  0  0
   -1.7180    1.1870   -5.2220 C   0  0  0  0  0
   -3.0500    1.0460   -5.7200 O   0  0  0  0  0
   -1.6990    1.0630   -3.6810 C   0  0  0  0  0
   -3.0190    0.8430   -3.1800 O   0  0  0  0  0
   -0.8010   -0.1660   -3.4170 C   0  0  0  0  0
    0.0180    0.0480   -2.2220 N   0  0  0  0  0
    1.2490    0.6370   -2.1830 C   0  0  0  0  0
    1.6830    0.6600   -0.9570 N   0  0  0  0  0
    0.7570    0.0880   -0.1460 C   0  0  0  0  0
    0.6960   -0.1540    1.2480 C   0  0  0  0  0
    1.6190    0.1810    1.9680 O   0  0  0  0  0
   -0.3870   -0.7570    1.7740 N   0  0  0  0  0
   -1.4300   -1.1410    0.9810 C   0  0  0  0  0
   -2.3420   -1.6990    1.7470 N   0  0  0  0  0
   -1.3960   -0.9160   -0.3800 N   0  0  0  0  0
   -2.5230   -1.3330   -1.2190 C   0  0  0  0  0
   -0.3080   -0.3040   -0.9490 C   0  0  0  0  0
   -2.6750   -2.2440    4.2030 C   0  0  0  0  0
   -1.9180   -1.6950    3.0210 C   0  0  0  0  0
   -0.7090   -1.1100    3.0660 C   0  0  0  0  0
    0.1360   -0.8900    4.2940 C   0  0  0  0  0
   -0.1980    0.4710    4.9060 C   0  0  0  0  0
    0.6590    0.6940    6.1520 C   0  0  0  0  0
    0.3290    2.0350    6.7560 C   0  0  0  0  0
    0.9360    3.0200    6.4080 O   0  0  0  0  0
   -0.6390    2.1350    7.6790 O   0  0  0  0  0
   -0.9570    3.4270    8.2610 C   0  0  0  0  0
    0.3850   -0.3610    7.1300 N   0  0  0  0  0
    1.3520   -0.7580    7.9810 C   0  0  0  0  0
    2.4500   -0.2400    7.9380 O   0  0  0  0  0
    1.1000   -1.7290    8.8800 O   0  0  0  0  0
    2.1410   -2.1570    9.7970 C   0  0  0  0  0
    3.1570   -0.9480   -9.8480 H   0  0  0  0  0
    0.1710   -0.5680   -9.9880 H   0  0  0  0  0
   -0.6810    0.6770   -7.7500 H   0  0  0  0  0
    0.5870    1.3130   -6.6770 H   0  0  0  0  0
   -1.4480   -0.8500   -5.9430 H   0  0  0  0  0
   -1.2940    2.1420   -5.5350 H   0  0  0  0  0
   -3.5540    1.8010   -5.3880 H   0  0  0  0  0
   -1.2640    1.9550   -3.2310 H   0  0  0  0  0
   -3.5440    1.6160   -3.4280 H   0  0  0  0  0
   -1.4100   -1.0630   -3.3030 H   0  0  0  0  0
    1.7800    1.0250   -3.0390 H   0  0  0  0  0
   -3.2870   -1.7970   -0.5960 H   0  0  0  0  0
   -2.9430   -0.4620   -1.7220 H   0  0  0  0  0
   -2.1760   -2.0500   -1.9630 H   0  0  0  0  0
   -2.4170   -3.2940    4.3440 H   0  0  0  0  0
   -2.4100   -1.6810    5.0980 H   0  0  0  0  0
   -3.7460   -2.1550    4.0220 H   0  0  0  0  0
    1.1900   -0.9150    4.0180 H   0  0  0  0  0
   -0.0670   -1.6760    5.0210 H   0  0  0  0  0
   -1.2530    0.4950    5.1820 H   0  0  0  0  0
    0.0050    1.2560    4.1790 H   0  0  0  0  0
    1.7140    0.6700    5.8770 H   0  0  0  0  0
   -1.7630    3.3110    8.9850 H   0  0  0  0  0
   -0.0750    3.8290    8.7600 H   0  0  0  0  0
   -1.2720    4.1120    7.4730 H   0  0  0  0  0
   -0.4910   -0.7740    7.1650 H   0  0  0  0  0
    1.7540   -2.9440   10.4440 H   0  0  0  0  0
    2.9910   -2.5370    9.2300 H   0  0  0  0  0
    2.4600   -1.3110   10.4060 H   0  0  0  0  0
  1  2  2  0  0  0
  1  3  1  0  0  0
  1  4  1  0  0  0
  1  5  1  0  0  0
  3 41  1  0  0  0
  4 42  1  0  0  0
  5  6  1  0  0  0
  6  7  1  0  0  0
  6 43  1  0  0  0
  6 44  1  0  0  0
  7  8  1  0  0  0
  7  9  1  0  0  0
  7 45  1  0  0  0
  8 13  1  0  0  0
  9 10  1  0  0  0
  9 11  1  0  0  0
  9 46  1  0  0  0
 10 47  1  0  0  0
 11 12  1  0  0  0
 11 13  1  0  0  0
 11 48  1  0  0  0
 12 49  1  0  0  0
 13 14  1  0  0  0
 13 50  1  0  0  0
 14 15  1  0  0  0
 14 25  1  0  0  0
 15 16  2  0  0  0
 15 51  1  0  0  0
 16 17  1  0  0  0
 17 18  1  0  0  0
 17 25  2  0  0  0
 18 19  2  0  0  0
 18 20  1  0  0  0
 20 21  1  0  0  0
 20 28  1  0  0  0
 21 22  2  0  0  0
 21 23  1  0  0  0
 22 27  1  0  0  0
 23 24  1  0  0  0
 23 25  1  0  0  0
 24 52  1  0  0  0
 24 53  1  0  0  0
 24 54  1  0  0  0
 26 27  1  0  0  0
 26 55  1  0  0  0
 26 56  1  0  0  0
 26 57  1  0  0  0
 27 28  2  0  0  0
 28 29  1  0  0  0
 29 30  1  0  0  0
 29 58  1  0  0  0
 29 59  1  0  0  0
 30 31  1  0  0  0
 30 60  1  0  0  0
 30 61  1  0  0  0
 31 32  1  0  0  0
 31 36  1  0  0  0
 31 62  1  0  0  0
 32 33  2  0  0  0
 32 34  1  0  0  0
 34 35  1  0  0  0
 35 63  1  0  0  0
 35 64  1  0  0  0
 35 65  1  0  0  0
 36 37  1  0  0  0
 36 66  1  0  0  0
 37 38  2  0  0  0
 37 39  1  0  0  0
 39 40  1  0  0  0
 40 67  1  0  0  0
 40 68  1  0  0  0
 40 69  1  0  0  0
M  END
$$$$
