ZBR
  CCTOOLS-1004241128

 21 21  0  0  0  0  0  0  0  0999 V2000
   -1.3900    0.0050   -0.3820 C   0  0  0  0  0
   -0.8080   -1.1930   -0.0150 C   0  0  0  0  0
    0.3640   -1.1970    0.7180 C   0  0  0  0  0
    0.9530   -0.0020    1.0850 C   0  0  0  0  0
    0.3710    1.1970    0.7180 C   0  0  0  0  0
   -0.8010    1.2010   -0.0150 C   0  0  0  0  0
   -2.6640    0.0090   -1.1860 C   0  0  0  0  0
    0.9980   -2.5040    1.1190 C   0  0  0  0  0
    1.0140    2.5010    1.1180 C   0  0  0  0  0
    2.2570   -3.0760   -0.2780 BR  0  0  0  0  0
   -4.2080    0.0090    0.0310 BR  0  0  0  0  0
    2.2780    3.0640   -0.2780 BR  0  0  0  0  0
   -1.2690   -2.1270   -0.3010 H   0  0  0  0  0
    1.8680   -0.0040    1.6580 H   0  0  0  0  0
   -1.2560    2.1380   -0.3010 H   0  0  0  0  0
   -2.6960    0.9010   -1.8130 H   0  0  0  0  0
   -2.6990   -0.8790   -1.8170 H   0  0  0  0  0
    1.5330   -2.3750    2.0590 H   0  0  0  0  0
    0.2240   -3.2610    1.2420 H   0  0  0  0  0
    0.2440    3.2630    1.2400 H   0  0  0  0  0
    1.5470    2.3690    2.0590 H   0  0  0  0  0
  1  2  2  0  0  0
  1  6  1  0  0  0
  1  7  1  0  0  0
  2  3  1  0  0  0
  2 13  1  0  0  0
  3  4  2  0  0  0
  3  8  1  0  0  0
  4  5  1  0  0  0
  4 14  1  0  0  0
  5  6  2  0  0  0
  5  9  1  0  0  0
  6 15  1  0  0  0
  7 11  1  0  0  0
  7 16  1  0  0  0
  7 17  1  0  0  0
  8 10  1  0  0  0
  8 18  1  0  0  0
  8 19  1  0  0  0
  9 12  1  0  0  0
  9 20  1  0  0  0
  9 21  1  0  0  0
M  END
$$$$
