ZCL
  CCTOOLS-1004241128

 23 23  0  0  1  0  0  0  0  0999 V2000
   -2.2530    1.2180   -1.0360 N   0  0  0  0  0
   -4.7120    1.0450   -0.0480 O   0  0  0  0  0
    3.9480   -0.9280   -0.4150 CL  0  0  0  0  0
    1.4330   -1.8470   -0.0140 C   0  0  0  0  0
    1.7490    0.5160    0.2330 C   0  0  0  0  0
    2.7870    1.9060    0.1930 CL  0  0  0  0  0
    0.0920   -1.6990    0.2860 C   0  0  0  0  0
    0.4040    0.6640    0.5210 C   0  0  0  0  0
   -1.8880   -0.2810    0.8660 C   0  0  0  0  0
   -4.1410   -0.0170   -0.1340 C   0  0  0  0  0
    2.2630   -0.7410   -0.0400 C   0  0  0  0  0
   -0.4230   -0.4440    0.5520 C   0  0  0  0  0
   -2.6650   -0.0570   -0.4330 C   0  0  0  0  0
   -2.7040    1.3590   -1.9270 H   0  0  0  0  0
   -2.4360    1.9890   -0.4120 H   0  0  0  0  0
    1.8340   -2.8280   -0.2220 H   0  0  0  0  0
   -0.5550   -2.5630    0.3110 H   0  0  0  0  0
    0.0020    1.6440    0.7340 H   0  0  0  0  0
   -2.2560   -1.1810    1.3580 H   0  0  0  0  0
   -2.0250    0.5760    1.5250 H   0  0  0  0  0
   -2.4570   -0.8710   -1.1270 H   0  0  0  0  0
   -4.8230   -1.1610    0.0370 O   0  0  0  0  0
   -5.7680   -1.0850    0.2270 H   0  0  0  0  0
  1 13  1  0  0  0
  1 14  1  0  0  0
  1 15  1  0  0  0
  2 10  2  0  0  0
  3 11  1  0  0  0
  4  7  1  0  0  0
  4 16  1  0  0  0
  5  8  2  0  0  0
  5 11  1  0  0  0
  6  5  1  0  0  0
  7 17  1  0  0  0
  8 12  1  0  0  0
  8 18  1  0  0  0
  9 13  1  0  0  0
  9 19  1  0  0  0
  9 20  1  0  0  0
 10 22  1  0  0  0
 11  4  2  0  0  0
 12  7  2  0  0  0
 12  9  1  0  0  0
 13 10  1  0  0  0
 13 21  1  0  0  0
 22 23  1  0  0  0
M  END
$$$$
