ZLP
  CCTOOLS-0919241043

 91 95  0  0  1  0  0  0  0  0999 V2000
   11.3970   -0.4080    0.3180 C   0  0  0  0  0
   -9.3220    4.7510    0.3200 C   0  0  0  0  0
    4.6860   -3.2640    2.5780 C   0  0  0  0  0
    3.6800   -2.9250    0.3160 C   0  0  0  0  0
   -2.8030   -1.8460   -1.1850 O   0  0  0  0  0
    4.0510    1.3090    2.7230 O   0  0  0  0  0
    2.7440    2.1790    0.7770 O   0  0  0  0  0
    0.3070    1.1640    1.1500 O   0  0  0  0  0
   -3.1910   -0.7100   -4.5690 C   0  0  0  0  0
   -3.6030    0.1670   -3.5830 C   0  0  0  0  0
   -1.9060   -1.2190   -4.5490 C   0  0  0  0  0
   -2.7290    0.5360   -2.5780 C   0  0  0  0  0
   -1.0320   -0.8490   -3.5440 C   0  0  0  0  0
    4.9850    1.5320   -0.9520 C   0  0  0  0  0
    6.1150    1.4760   -1.7450 C   0  0  0  0  0
    6.2380    0.6980    0.9150 C   0  0  0  0  0
   -7.2010    3.6350    0.3730 C   0  0  0  0  0
   -6.4830    2.4230    0.9690 C   0  0  0  0  0
   -7.1980   -0.4630    2.2180 C   0  0  0  0  0
   -5.3970   -3.1730    0.3820 C   0  0  0  0  0
   -0.4900    0.4330   -1.4630 C   0  0  0  0  0
    3.1570   -1.3310    2.1680 C   0  0  0  0  0
    1.8310   -0.4490    0.1920 C   0  0  0  0  0
    8.5930    0.8640   -1.7410 N   0  0  0  0  0
   10.6590    0.1000   -0.8410 N   0  0  0  0  0
   -1.9560   -0.4260    0.2970 N   0  0  0  0  0
   -8.5580    3.6520    0.8220 O   0  0  0  0  0
   -7.0650    1.2240    0.4550 O   0  0  0  0  0
   -7.1860   -1.9020    2.1190 O   0  0  0  0  0
   -6.8130   -3.4500    0.4000 O   0  0  0  0  0
   -4.2130   -1.0160    0.3140 O   0  0  0  0  0
    8.6510    0.2520    0.3840 O   0  0  0  0  0
   -2.9840   -1.1220   -0.2260 C   0  0  0  0  0
   -1.4430    0.0290   -2.5580 C   0  0  0  0  0
    5.0470    1.1430    0.3740 C   0  0  0  0  0
    9.3910    0.3830   -0.7340 C   0  0  0  0  0
    7.3130    1.0300   -1.2090 C   0  0  0  0  0
    7.3770    0.6380    0.1270 C   0  0  0  0  0
    4.2400   -2.2200    1.5530 C   0  0  0  0  0
    0.4340   -0.2070    0.7680 C   0  0  0  0  0
   -0.6180   -0.5420   -0.2900 C   0  0  0  0  0
   -6.4640    0.0260    0.9510 C   0  0  0  0  0
   -5.2730   -1.7940   -0.3010 C   0  0  0  0  0
    2.8340   -0.2440    1.2410 N   0  0  0  0  0
   -7.4480   -2.1970    0.7310 C   0  0  0  0  0
   -6.6430   -1.1270   -0.0600 C   0  0  0  0  0
    3.6010    1.2170    1.3780 S   0  0  0  0  0
   11.3580    0.3250    1.1230 H   0  0  0  0  0
   10.9460   -1.3420    0.6550 H   0  0  0  0  0
   12.4350   -0.5860    0.0380 H   0  0  0  0  0
  -10.3400    4.6910    0.7060 H   0  0  0  0  0
   -8.8660    5.6870    0.6410 H   0  0  0  0  0
   -9.3440    4.7110   -0.7690 H   0  0  0  0  0
    5.4570   -3.8980    2.1400 H   0  0  0  0  0
    5.0850   -2.7620    3.4590 H   0  0  0  0  0
    3.8320   -3.8780    2.8660 H   0  0  0  0  0
    3.4930   -2.1910   -0.4680 H   0  0  0  0  0
    4.4010   -3.6620   -0.0400 H   0  0  0  0  0
    2.7470   -3.4260    0.5750 H   0  0  0  0  0
    0.4270    1.7880    0.4210 H   0  0  0  0  0
   -3.8750   -1.0030   -5.3520 H   0  0  0  0  0
   -4.6070    0.5640   -3.5990 H   0  0  0  0  0
   -1.5840   -1.9040   -5.3190 H   0  0  0  0  0
   -3.0500    1.2220   -1.8080 H   0  0  0  0  0
   -0.0270   -1.2460   -3.5280 H   0  0  0  0  0
    4.0520    1.8830   -1.3680 H   0  0  0  0  0
    6.0650    1.7790   -2.7810 H   0  0  0  0  0
    6.2810    0.3960    1.9510 H   0  0  0  0  0
   -6.7010    4.5490    0.6960 H   0  0  0  0  0
   -7.1790    3.5730   -0.7150 H   0  0  0  0  0
   -5.4270    2.4580    0.7000 H   0  0  0  0  0
   -6.5820    2.4390    2.0540 H   0  0  0  0  0
   -8.2220   -0.0910    2.2310 H   0  0  0  0  0
   -6.6650   -0.1400    3.1130 H   0  0  0  0  0
   -5.0060   -3.1290    1.3990 H   0  0  0  0  0
   -4.8690   -3.9320   -0.1960 H   0  0  0  0  0
    0.5310    0.4110   -1.8430 H   0  0  0  0  0
   -0.7310    1.4410   -1.1250 H   0  0  0  0  0
    2.2630   -1.9260    2.3560 H   0  0  0  0  0
    3.5200   -0.9130    3.1060 H   0  0  0  0  0
    1.8990   -1.4710   -0.1800 H   0  0  0  0  0
    2.0130    0.2490   -0.6250 H   0  0  0  0  0
    8.8660    1.0520   -2.6530 H   0  0  0  0  0
   -2.1010    0.1520    1.0620 H   0  0  0  0  0
    5.0940   -1.6060    1.2650 H   0  0  0  0  0
    0.2870   -0.8430    1.6410 H   0  0  0  0  0
   -0.4650   -1.5610   -0.6460 H   0  0  0  0  0
   -5.4070    0.1900    1.1610 H   0  0  0  0  0
   -5.0870   -1.9130   -1.3690 H   0  0  0  0  0
   -8.5120   -2.1940    0.4970 H   0  0  0  0  0
   -7.1280   -0.8090   -0.9830 H   0  0  0  0  0
  1 25  1  0  0  0
  1 48  1  0  0  0
  1 49  1  0  0  0
  1 50  1  0  0  0
  2 27  1  0  0  0
  2 51  1  0  0  0
  2 52  1  0  0  0
  2 53  1  0  0  0
  3 39  1  0  0  0
  3 54  1  0  0  0
  3 55  1  0  0  0
  3 56  1  0  0  0
  4 39  1  0  0  0
  4 57  1  0  0  0
  4 58  1  0  0  0
  4 59  1  0  0  0
  5 33  2  0  0  0
  6 47  2  0  0  0
  7 47  2  0  0  0
  8 40  1  0  0  0
  8 60  1  0  0  0
  9 10  2  0  0  0
  9 11  1  0  0  0
  9 61  1  0  0  0
 10 12  1  0  0  0
 10 62  1  0  0  0
 11 13  2  0  0  0
 11 63  1  0  0  0
 12 34  2  0  0  0
 12 64  1  0  0  0
 13 34  1  0  0  0
 13 65  1  0  0  0
 14 15  2  0  0  0
 14 35  1  0  0  0
 14 66  1  0  0  0
 15 37  1  0  0  0
 15 67  1  0  0  0
 16 35  2  0  0  0
 16 38  1  0  0  0
 16 68  1  0  0  0
 17 18  1  0  0  0
 17 27  1  0  0  0
 17 69  1  0  0  0
 17 70  1  0  0  0
 18 28  1  0  0  0
 18 71  1  0  0  0
 18 72  1  0  0  0
 19 29  1  0  0  0
 19 42  1  0  0  0
 19 73  1  0  0  0
 19 74  1  0  0  0
 20 30  1  0  0  0
 20 43  1  0  0  0
 20 75  1  0  0  0
 20 76  1  0  0  0
 21 34  1  0  0  0
 21 41  1  0  0  0
 21 77  1  0  0  0
 21 78  1  0  0  0
 22 39  1  0  0  0
 22 44  1  0  0  0
 22 79  1  0  0  0
 22 80  1  0  0  0
 23 40  1  0  0  0
 23 44  1  0  0  0
 23 81  1  0  0  0
 23 82  1  0  0  0
 24 36  1  0  0  0
 24 37  1  0  0  0
 24 83  1  0  0  0
 25 36  2  0  0  0
 26 33  1  0  0  0
 26 41  1  0  0  0
 26 84  1  0  0  0
 28 42  1  0  0  0
 29 45  1  0  0  0
 30 45  1  0  0  0
 31 33  1  0  0  0
 31 43  1  0  0  0
 32 36  1  0  0  0
 32 38  1  0  0  0
 35 47  1  0  0  0
 37 38  2  0  0  0
 39 85  1  0  0  0
 40 41  1  0  0  0
 40 86  1  0  0  0
 41 87  1  0  0  0
 42 46  1  0  0  0
 42 88  1  0  0  0
 43 46  1  0  0  0
 43 89  1  0  0  0
 44 47  1  0  0  0
 45 46  1  0  0  0
 45 90  1  0  0  0
 46 91  1  0  0  0
M  END
$$$$
