ZTP
  CCTOOLS-0919241044

117116  0  0  0  0  0  0  0  0999 V2000
   16.8960   -0.1840   -0.6400 C   0  0  0  0  0
  -10.2710    0.7490    0.6230 O   0  0  0  0  0
  -11.2830   -0.0120   -0.3720 P   0  0  0  0  0
   16.2250    0.6720    0.4030 C   0  0  0  0  0
  -12.0740    0.9840   -1.1280 O   0  0  0  0  0
  -13.6600   -1.7010    0.1590 P   0  0  0  0  0
   17.0350    1.6640    1.1980 C   0  0  0  0  0
  -10.4410   -0.9220   -1.4000 O   0  0  0  0  0
   14.9390    0.5550    0.6180 C   0  0  0  0  0
  -12.2750   -0.9470    0.4840 O   0  0  0  0  0
   14.1290   -0.4370   -0.1770 C   0  0  0  0  0
  -13.3530   -3.0680   -0.6350 O   0  0  0  0  0
   13.3850   -1.3710    0.7790 C   0  0  0  0  0
  -14.4220   -2.0390    1.5360 O   0  0  0  0  0
   12.5760   -2.3630   -0.0160 C   0  0  0  0  0
  -14.5130   -0.8260   -0.6750 O   0  0  0  0  0
   13.2100   -3.6450   -0.4900 C   0  0  0  0  0
   11.3210   -2.1100   -0.2950 C   0  0  0  0  0
   10.7270   -0.7700    0.0530 C   0  0  0  0  0
   10.1100   -0.1440   -1.1990 C   0  0  0  0  0
    9.5160    1.1960   -0.8510 C   0  0  0  0  0
   10.3770    2.4320   -0.8770 C   0  0  0  0  0
    8.2500    1.2870   -0.5250 C   0  0  0  0  0
    7.4230    0.0380   -0.3600 C   0  0  0  0  0
    6.7660    0.0410    1.0220 C   0  0  0  0  0
    5.9390   -1.2080    1.1870 C   0  0  0  0  0
    6.5840   -2.4800    1.6750 C   0  0  0  0  0
    4.6590   -1.1890    0.9070 C   0  0  0  0  0
    4.0430    0.0370    0.2820 C   0  0  0  0  0
    3.3110   -0.3590   -1.0020 C   0  0  0  0  0
    2.6950    0.8670   -1.6270 C   0  0  0  0  0
    3.5110    1.7310   -2.5530 C   0  0  0  0  0
    1.4510    1.1810   -1.3640 C   0  0  0  0  0
    0.6770    0.3970   -0.3360 C   0  0  0  0  0
    0.0900    1.3570    0.7010 C   0  0  0  0  0
   -0.6840    0.5730    1.7300 C   0  0  0  0  0
    0.0250   -0.0040    2.9270 C   0  0  0  0  0
   -1.9730    0.3940    1.5830 C   0  0  0  0  0
   -2.6570    0.8430    0.3170 C   0  0  0  0  0
   -3.4490   -0.3230   -0.2760 C   0  0  0  0  0
   -4.1330    0.1260   -1.5420 C   0  0  0  0  0
   -3.4000    0.0620   -2.8580 C   0  0  0  0  0
   -5.3640    0.5710   -1.4990 C   0  0  0  0  0
   -6.0470    0.7700   -0.1710 C   0  0  0  0  0
   -6.5650    2.2060   -0.0730 C   0  0  0  0  0
   -7.2490    2.4040    1.2550 C   0  0  0  0  0
   -6.4410    2.7870    2.4690 C   0  0  0  0  0
   -8.5450    2.2440    1.3550 C   0  0  0  0  0
   -9.3340    1.7320    0.1780 C   0  0  0  0  0
   17.9590    0.0530   -0.6760 H   0  0  0  0  0
   16.7670   -1.2360   -0.3840 H   0  0  0  0  0
   16.4470    0.0110   -1.6140 H   0  0  0  0  0
   17.0460    2.6230    0.6800 H   0  0  0  0  0
   16.5890    1.7890    2.1850 H   0  0  0  0  0
   18.0560    1.2970    1.3050 H   0  0  0  0  0
   -9.8980   -1.5980   -0.9730 H   0  0  0  0  0
   14.4580    1.1690    1.3660 H   0  0  0  0  0
   13.4090    0.0970   -0.7970 H   0  0  0  0  0
   14.7940   -1.0210   -0.8130 H   0  0  0  0  0
  -12.7980   -3.6900   -0.1460 H   0  0  0  0  0
   14.1060   -1.9050    1.4000 H   0  0  0  0  0
   12.7210   -0.7870    1.4150 H   0  0  0  0  0
  -15.2670   -2.4950    1.4160 H   0  0  0  0  0
   13.0750   -4.4180    0.2660 H   0  0  0  0  0
   12.7380   -3.9610   -1.4210 H   0  0  0  0  0
   14.2740   -3.4840   -0.6590 H   0  0  0  0  0
   10.7120   -2.8620   -0.7750 H   0  0  0  0  0
    9.9550   -0.9000    0.8120 H   0  0  0  0  0
   11.5080   -0.1150    0.4390 H   0  0  0  0  0
   10.8810   -0.0140   -1.9580 H   0  0  0  0  0
    9.3280   -0.7990   -1.5850 H   0  0  0  0  0
   10.3420    2.8790   -1.8710 H   0  0  0  0  0
   10.0080    3.1480   -0.1440 H   0  0  0  0  0
   11.4060    2.1630   -0.6370 H   0  0  0  0  0
    7.7990    2.2570   -0.3750 H   0  0  0  0  0
    6.6510    0.0080   -1.1290 H   0  0  0  0  0
    8.0650   -0.8380   -0.4550 H   0  0  0  0  0
    7.5370    0.0700    1.7910 H   0  0  0  0  0
    6.1240    0.9170    1.1170 H   0  0  0  0  0
    6.5310   -2.5200    2.7630 H   0  0  0  0  0
    6.0600   -3.3380    1.2540 H   0  0  0  0  0
    7.6270   -2.5020    1.3610 H   0  0  0  0  0
    4.0460   -2.0500    1.1240 H   0  0  0  0  0
    3.3360    0.4840    0.9810 H   0  0  0  0  0
    4.8270    0.7570    0.0470 H   0  0  0  0  0
    4.0180   -0.8060   -1.7000 H   0  0  0  0  0
    2.5280   -1.0790   -0.7660 H   0  0  0  0  0
    3.3970    1.3750   -3.5770 H   0  0  0  0  0
    3.1650    2.7630   -2.4860 H   0  0  0  0  0
    4.5620    1.6810   -2.2660 H   0  0  0  0  0
    0.9790    2.0010   -1.8850 H   0  0  0  0  0
   -0.1310   -0.1470   -0.8260 H   0  0  0  0  0
    1.3430   -0.3100    0.1590 H   0  0  0  0  0
    0.8980    1.9010    1.1910 H   0  0  0  0  0
   -0.5760    2.0640    0.2060 H   0  0  0  0  0
    0.0160    0.7220    3.7400 H   0  0  0  0  0
   -0.4830   -0.9140    3.2470 H   0  0  0  0  0
    1.0560   -0.2390    2.6610 H   0  0  0  0  0
   -2.5460   -0.0750    2.3680 H   0  0  0  0  0
   -3.3360    1.6660    0.5430 H   0  0  0  0  0
   -1.9080    1.1770   -0.4020 H   0  0  0  0  0
   -2.7700   -1.1460   -0.5020 H   0  0  0  0  0
   -4.1980   -0.6570    0.4420 H   0  0  0  0  0
   -3.5740   -0.9080   -3.3240 H   0  0  0  0  0
   -3.7640    0.8520   -3.5150 H   0  0  0  0  0
   -2.3320    0.1960   -2.6850 H   0  0  0  0  0
   -5.8890    0.7970   -2.4150 H   0  0  0  0  0
   -6.8830    0.0750   -0.0850 H   0  0  0  0  0
   -5.3370    0.5840    0.6350 H   0  0  0  0  0
   -5.7300    2.9000   -0.1590 H   0  0  0  0  0
   -7.2760    2.3910   -0.8790 H   0  0  0  0  0
   -6.3860    3.8730    2.5410 H   0  0  0  0  0
   -6.9180    2.3870    3.3630 H   0  0  0  0  0
   -5.4350    2.3770    2.3790 H   0  0  0  0  0
   -9.0480    2.4790    2.2820 H   0  0  0  0  0
   -8.6550    1.2850   -0.5480 H   0  0  0  0  0
   -9.8700    2.5600   -0.2880 H   0  0  0  0  0
  1 50  1  0  0  0
  1 51  1  0  0  0
  1 52  1  0  0  0
  2  3  1  0  0  0
  3  8  1  0  0  0
  3 10  1  0  0  0
  4  1  1  0  0  0
  5  3  2  0  0  0
  6 12  1  0  0  0
  6 14  1  0  0  0
  7  4  1  0  0  0
  7 53  1  0  0  0
  7 54  1  0  0  0
  7 55  1  0  0  0
  8 56  1  0  0  0
  9  4  2  0  0  0
  9 11  1  0  0  0
  9 57  1  0  0  0
 10  6  1  0  0  0
 11 13  1  0  0  0
 11 58  1  0  0  0
 11 59  1  0  0  0
 12 60  1  0  0  0
 13 61  1  0  0  0
 13 62  1  0  0  0
 14 63  1  0  0  0
 15 13  1  0  0  0
 15 18  2  0  0  0
 16  6  2  0  0  0
 17 15  1  0  0  0
 17 64  1  0  0  0
 17 65  1  0  0  0
 17 66  1  0  0  0
 18 19  1  0  0  0
 18 67  1  0  0  0
 19 68  1  0  0  0
 19 69  1  0  0  0
 20 19  1  0  0  0
 20 70  1  0  0  0
 20 71  1  0  0  0
 21 20  1  0  0  0
 21 23  2  0  0  0
 22 21  1  0  0  0
 22 72  1  0  0  0
 22 73  1  0  0  0
 22 74  1  0  0  0
 23 24  1  0  0  0
 23 75  1  0  0  0
 24 25  1  0  0  0
 24 76  1  0  0  0
 24 77  1  0  0  0
 25 26  1  0  0  0
 25 78  1  0  0  0
 25 79  1  0  0  0
 26 28  2  0  0  0
 27 26  1  0  0  0
 27 80  1  0  0  0
 27 81  1  0  0  0
 27 82  1  0  0  0
 28 29  1  0  0  0
 28 83  1  0  0  0
 29 30  1  0  0  0
 29 84  1  0  0  0
 29 85  1  0  0  0
 30 86  1  0  0  0
 30 87  1  0  0  0
 31 30  1  0  0  0
 31 33  2  0  0  0
 32 31  1  0  0  0
 32 88  1  0  0  0
 32 89  1  0  0  0
 32 90  1  0  0  0
 33 34  1  0  0  0
 33 91  1  0  0  0
 34 35  1  0  0  0
 34 92  1  0  0  0
 34 93  1  0  0  0
 35 36  1  0  0  0
 35 94  1  0  0  0
 35 95  1  0  0  0
 36 38  2  0  0  0
 36 37  1  0  0  0
 37 96  1  0  0  0
 37 97  1  0  0  0
 37 98  1  0  0  0
 38 99  1  0  0  0
 39 38  1  0  0  0
 39 40  1  0  0  0
 39100  1  0  0  0
 39101  1  0  0  0
 40102  1  0  0  0
 40103  1  0  0  0
 41 40  1  0  0  0
 41 43  2  0  0  0
 42 41  1  0  0  0
 42104  1  0  0  0
 42105  1  0  0  0
 42106  1  0  0  0
 43 44  1  0  0  0
 43107  1  0  0  0
 44 45  1  0  0  0
 44108  1  0  0  0
 44109  1  0  0  0
 45 46  1  0  0  0
 45110  1  0  0  0
 45111  1  0  0  0
 46 47  1  0  0  0
 46 48  2  0  0  0
 47112  1  0  0  0
 47113  1  0  0  0
 47114  1  0  0  0
 48115  1  0  0  0
 49  2  1  0  0  0
 49 48  1  0  0  0
 49116  1  0  0  0
 49117  1  0  0  0
M  END
$$$$
