ZXG
  CCTOOLS-0919241044

 37 38  0  0  0  0  0  0  0  0999 V2000
   -1.2260    1.3250    3.1970 C   0  0  0  0  0
   -0.8090   -1.1360    3.3210 C   0  0  0  0  0
    3.5590   -1.2920   -1.2750 O   0  0  0  0  0
    5.5220    0.1020   -1.9460 O   0  0  0  0  0
   -4.9480   -0.7960   -1.4360 O   0  0  0  0  0
    3.3220    0.6490   -2.5910 O   0  0  0  0  0
   -5.6450    1.5250    0.4160 BR  0  0  0  0  0
   -2.6580   -2.7820   -1.7740 BR  0  0  0  0  0
    4.1610   -1.5170    1.7580 BR  0  0  0  0  0
    1.9610    2.8020   -1.2040 BR  0  0  0  0  0
   -3.1110    0.6370    1.3600 C   0  0  0  0  0
   -1.8520   -1.1810    0.4380 C   0  0  0  0  0
    1.4900   -0.5610    1.9870 C   0  0  0  0  0
    0.5570    1.2500    0.7250 C   0  0  0  0  0
    4.0320    0.7770   -0.2490 O   0  0  0  0  0
   -4.1050    0.4280    0.4220 C   0  0  0  0  0
   -2.8400   -1.3910   -0.5060 C   0  0  0  0  0
    2.7000   -0.3910    1.3410 C   0  0  0  0  0
    1.7680    1.4320    0.0840 C   0  0  0  0  0
   -3.9720   -0.5880   -0.5130 C   0  0  0  0  0
   -1.9840   -0.1640    1.3650 C   0  0  0  0  0
    0.4200    0.2590    1.6790 C   0  0  0  0  0
    2.8420    0.6070    0.3870 C   0  0  0  0  0
   -0.8990    0.0710    2.3840 C   0  0  0  0  0
    4.1710   -0.0350   -1.5290 S   0  0  0  0  0
   -0.4410    1.4950    3.9340 H   0  0  0  0  0
   -1.2900    2.1840    2.5300 H   0  0  0  0  0
   -2.1790    1.1890    3.7070 H   0  0  0  0  0
   -1.7620   -1.2720    3.8310 H   0  0  0  0  0
   -0.5760   -2.0290    2.7410 H   0  0  0  0  0
   -0.0240   -0.9660    4.0570 H   0  0  0  0  0
   -4.8290   -0.2960   -2.2550 H   0  0  0  0  0
    3.3400    0.2100   -3.4520 H   0  0  0  0  0
   -3.2120    1.4310    2.0850 H   0  0  0  0  0
   -0.9710   -1.8060    0.4440 H   0  0  0  0  0
    1.3780   -1.3380    2.7290 H   0  0  0  0  0
   -0.2790    1.8920    0.4900 H   0  0  0  0  0
  1 24  1  0  0  0
  1 26  1  0  0  0
  1 27  1  0  0  0
  1 28  1  0  0  0
  2 24  1  0  0  0
  2 29  1  0  0  0
  2 30  1  0  0  0
  2 31  1  0  0  0
  3 25  2  0  0  0
  4 25  2  0  0  0
  5 20  1  0  0  0
  5 32  1  0  0  0
  6 33  1  0  0  0
  7 16  1  0  0  0
  8 17  1  0  0  0
 11 21  1  0  0  0
 11 34  1  0  0  0
 12 21  2  0  0  0
 12 35  1  0  0  0
 13 18  1  0  0  0
 13 36  1  0  0  0
 14 19  2  0  0  0
 14 37  1  0  0  0
 15 25  1  0  0  0
 16 11  2  0  0  0
 17 12  1  0  0  0
 18  9  1  0  0  0
 18 23  2  0  0  0
 19 10  1  0  0  0
 19 23  1  0  0  0
 20 16  1  0  0  0
 20 17  2  0  0  0
 21 24  1  0  0  0
 22 13  2  0  0  0
 22 14  1  0  0  0
 23 15  1  0  0  0
 24 22  1  0  0  0
 25  6  1  0  0  0
M  END
$$$$
