ZYJ
  CCTOOLS-1004241120

 39 40  0  0  1  0  0  0  0  0999 V2000
   -6.3850   -0.0160   -0.2350 C   0  0  0  0  0
   -4.5730   -0.9050    1.1670 N   0  0  0  0  0
   -6.7770   -1.1540   -0.3370 O   0  0  0  0  0
   -0.3460    0.1840   -0.0870 N   0  0  0  0  0
   -1.6460    0.7420   -0.0520 O   0  0  0  0  0
    5.2910    2.8580    0.2490 C   0  0  0  0  0
    5.5270    1.4550    0.1170 O   0  0  0  0  0
    5.8400   -1.2660   -0.1400 O   0  0  0  0  0
    4.5930   -0.7270   -0.1060 C   0  0  0  0  0
    4.4340    0.6510    0.0240 C   0  0  0  0  0
    3.4800   -1.5500   -0.2060 C   0  0  0  0  0
   -5.0360    0.2640    0.3760 C   0  0  0  0  0
   -3.9700    0.4350   -0.7280 C   0  0  0  0  0
   -3.0990   -0.7340    1.2410 C   0  0  0  0  0
   -2.6960   -0.2220   -0.1590 C   0  0  0  0  0
    3.1670    1.2010    0.0600 C   0  0  0  0  0
    2.2130   -1.0080   -0.1720 C   0  0  0  0  0
    2.0460    0.3720   -0.0360 C   0  0  0  0  0
    0.6910    0.9530    0.0010 C   0  0  0  0  0
    5.9290   -2.6860   -0.2760 C   0  0  0  0  0
   -7.1480    0.9980   -0.6710 O   0  0  0  0  0
   -4.9830   -0.9040    2.0880 H   0  0  0  0  0
    4.7370    3.2160   -0.6180 H   0  0  0  0  0
    4.7120    3.0460    1.1530 H   0  0  0  0  0
    6.2440    3.3830    0.3130 H   0  0  0  0  0
    3.6070   -2.6180   -0.3120 H   0  0  0  0  0
   -5.0820    1.1540    1.0040 H   0  0  0  0  0
   -4.2840   -0.0740   -1.6390 H   0  0  0  0  0
   -3.7960    1.4920   -0.9250 H   0  0  0  0  0
   -2.8390    0.0000    2.0030 H   0  0  0  0  0
   -2.6150   -1.6880    1.4500 H   0  0  0  0  0
   -2.3830   -1.0520   -0.7920 H   0  0  0  0  0
    3.0430    2.2690    0.1610 H   0  0  0  0  0
    1.3480   -1.6510   -0.2500 H   0  0  0  0  0
    0.5640    2.0210    0.1020 H   0  0  0  0  0
    5.4270   -3.1640    0.5660 H   0  0  0  0  0
    5.4510   -2.9930   -1.2060 H   0  0  0  0  0
    6.9770   -2.9840   -0.2900 H   0  0  0  0  0
   -8.0040    0.7690   -1.0590 H   0  0  0  0  0
  1  3  2  0  0  0
  1 12  1  0  0  0
  1 21  1  0  0  0
  2 12  1  0  0  0
  2 14  1  0  0  0
  2 22  1  0  0  0
  4  5  1  0  0  0
  4 19  2  0  0  0
  5 15  1  0  0  0
  6  7  1  0  0  0
  6 23  1  0  0  0
  6 24  1  0  0  0
  6 25  1  0  0  0
  7 10  1  0  0  0
  8  9  1  0  0  0
  8 20  1  0  0  0
  9 10  2  0  0  0
  9 11  1  0  0  0
 10 16  1  0  0  0
 11 17  2  0  0  0
 11 26  1  0  0  0
 12 13  1  0  0  0
 12 27  1  0  0  0
 13 15  1  0  0  0
 13 28  1  0  0  0
 13 29  1  0  0  0
 14 15  1  0  0  0
 14 30  1  0  0  0
 14 31  1  0  0  0
 15 32  1  0  0  0
 16 18  2  0  0  0
 16 33  1  0  0  0
 17 18  1  0  0  0
 17 34  1  0  0  0
 18 19  1  0  0  0
 19 35  1  0  0  0
 20 36  1  0  0  0
 20 37  1  0  0  0
 20 38  1  0  0  0
 21 39  1  0  0  0
M  END
$$$$
