ZYK
  CCTOOLS-1004241120

 40 41  0  0  1  0  0  0  0  0999 V2000
   -6.4350   -0.0930   -0.2370 C   0  0  0  0  0
   -4.6270   -0.9870    1.1670 N   0  0  0  0  0
   -6.8350   -1.2300   -0.3330 O   0  0  0  0  0
    0.6910    0.8620   -0.0090 C   0  0  0  0  0
   -0.3940    0.0670   -0.0960 N   0  0  0  0  0
   -1.6910    0.6340   -0.0620 O   0  0  0  0  0
    2.0430    0.2710   -0.0440 C   0  0  0  0  0
    0.5570    2.0650    0.0980 O   0  0  0  0  0
    3.1700    1.0930    0.0460 C   0  0  0  0  0
    5.8240   -1.3930   -0.1400 O   0  0  0  0  0
    2.2000   -1.1130   -0.1620 C   0  0  0  0  0
    5.5310    1.3320    0.1010 O   0  0  0  0  0
    3.4630   -1.6630   -0.1930 C   0  0  0  0  0
    4.5820   -0.8460   -0.1090 C   0  0  0  0  0
    5.9040   -2.8150   -0.2610 C   0  0  0  0  0
    4.4330    0.5350    0.0130 C   0  0  0  0  0
    5.3040    2.7370    0.2250 C   0  0  0  0  0
   -5.0840    0.1810    0.3710 C   0  0  0  0  0
   -4.0180    0.3390   -0.7350 C   0  0  0  0  0
   -3.1520   -0.8250    1.2390 C   0  0  0  0  0
   -2.7470   -0.3230   -0.1640 C   0  0  0  0  0
   -7.1920    0.9240   -0.6780 O   0  0  0  0  0
   -5.0370   -0.9780    2.0890 H   0  0  0  0  0
   -0.2870   -0.8930   -0.1820 H   0  0  0  0  0
    3.0530    2.1620    0.1410 H   0  0  0  0  0
    1.3310   -1.7510   -0.2270 H   0  0  0  0  0
    3.5820   -2.7330   -0.2840 H   0  0  0  0  0
    6.9500   -3.1200   -0.2740 H   0  0  0  0  0
    5.4000   -3.2810    0.5860 H   0  0  0  0  0
    5.4230   -3.1280   -1.1880 H   0  0  0  0  0
    6.2610    3.2560    0.2860 H   0  0  0  0  0
    4.7520    3.0950   -0.6440 H   0  0  0  0  0
    4.7270    2.9340    1.1290 H   0  0  0  0  0
   -5.1220    1.0750    0.9940 H   0  0  0  0  0
   -4.3350   -0.1730   -1.6430 H   0  0  0  0  0
   -3.8360    1.3940   -0.9380 H   0  0  0  0  0
   -2.8860   -0.0890    1.9980 H   0  0  0  0  0
   -2.6750   -1.7810    1.4530 H   0  0  0  0  0
   -2.4400   -1.1590   -0.7920 H   0  0  0  0  0
   -8.0490    0.6980   -1.0640 H   0  0  0  0  0
  1  3  2  0  0  0
  1 18  1  0  0  0
  1 22  1  0  0  0
  2 18  1  0  0  0
  2 20  1  0  0  0
  2 23  1  0  0  0
  4  5  1  0  0  0
  4  7  1  0  0  0
  4  8  2  0  0  0
  5  6  1  0  0  0
  5 24  1  0  0  0
  6 21  1  0  0  0
  7  9  2  0  0  0
  7 11  1  0  0  0
  9 16  1  0  0  0
  9 25  1  0  0  0
 10 14  1  0  0  0
 10 15  1  0  0  0
 11 13  2  0  0  0
 11 26  1  0  0  0
 12 16  1  0  0  0
 12 17  1  0  0  0
 13 14  1  0  0  0
 13 27  1  0  0  0
 14 16  2  0  0  0
 15 28  1  0  0  0
 15 29  1  0  0  0
 15 30  1  0  0  0
 17 31  1  0  0  0
 17 32  1  0  0  0
 17 33  1  0  0  0
 18 19  1  0  0  0
 18 34  1  0  0  0
 19 21  1  0  0  0
 19 35  1  0  0  0
 19 36  1  0  0  0
 20 21  1  0  0  0
 20 37  1  0  0  0
 20 38  1  0  0  0
 21 39  1  0  0  0
 22 40  1  0  0  0
M  END
$$$$
