ZZR
  CCTOOLS-0919241045

 16 17  0  0  0  0  0  0  0  0999 V2000
    2.1750   -0.7510   -0.0000 N   0  0  0  0  0
    1.1260   -1.6830   -0.0000 N   0  0  0  0  0
   -0.0350   -0.9550    0.0000 C   0  0  0  0  0
   -1.3740   -1.0530   -0.0000 N   0  0  0  0  0
   -1.9080    0.1480   -0.0000 C   0  0  0  0  0
   -3.2590    0.4340    0.0000 N   0  0  0  0  0
   -0.9000    1.0600   -0.0000 N   0  0  0  0  0
    0.2990    0.3280    0.0000 N   0  3  0  0  0
    1.6360    0.4420    0.0000 C   0  0  0  0  0
    2.3440    1.6470   -0.0000 N   0  0  0  0  0
    1.2070   -2.6500   -0.0000 H   0  0  0  0  0
   -3.9070   -0.2870    0.0000 H   0  0  0  0  0
   -3.5590    1.3570    0.0000 H   0  0  0  0  0
   -0.9900    2.0260   -0.0010 H   0  0  0  0  0
    3.3140    1.6410   -0.0010 H   0  0  0  0  0
    1.8650    2.4910    0.0000 H   0  0  0  0  0
  1  2  1  0  0  0
  1  9  2  0  0  0
  2  3  1  0  0  0
  2 11  1  0  0  0
  3  4  1  0  0  0
  3  8  2  0  0  0
  4  5  2  0  0  0
  5  6  1  0  0  0
  5  7  1  0  0  0
  6 12  1  0  0  0
  6 13  1  0  0  0
  7  8  1  0  0  0
  7 14  1  0  0  0
  8  9  1  0  0  0
  9 10  1  0  0  0
 10 15  1  0  0  0
 10 16  1  0  0  0
M  CHG  1   8   1
M  END
$$$$
