ZZS
  CCTOOLS-0919241045

 13 13  0  0  0  0  0  0  0  0999 V2000
    2.3460    0.9750    0.0000 N   0  0  0  0  0
    1.1500    0.2880    0.0010 C   0  0  0  0  0
    0.0000    0.9540   -0.0000 N   0  0  0  0  0
    1.1450   -1.0430   -0.0020 N   0  0  0  0  0
   -0.0000   -1.7020   -0.0010 C   0  0  0  0  0
   -1.1450   -1.0430    0.0020 N   0  0  0  0  0
   -1.1500    0.2880    0.0000 C   0  0  0  0  0
   -2.3460    0.9750   -0.0010 N   0  0  0  0  0
    2.3480    1.9450   -0.0020 H   0  0  0  0  0
    3.1850    0.4880    0.0050 H   0  0  0  0  0
   -0.0000   -2.7830   -0.0040 H   0  0  0  0  0
   -2.3480    1.9450   -0.0020 H   0  0  0  0  0
   -3.1850    0.4880   -0.0000 H   0  0  0  0  0
  1  2  1  0  0  0
  1  9  1  0  0  0
  1 10  1  0  0  0
  2  3  1  0  0  0
  2  4  2  0  0  0
  3  7  2  0  0  0
  4  5  1  0  0  0
  5  6  2  0  0  0
  5 11  1  0  0  0
  6  7  1  0  0  0
  7  8  1  0  0  0
  8 12  1  0  0  0
  8 13  1  0  0  0
M  END
$$$$
